data_image0
_chemical_formula_structural       Tb4O32P4C8H4C8H4C8H4C4H4C4H4C4H4C8H4C4H4C8H4C4H4C8H4C8H4C10H2
_chemical_formula_sum              "Tb4 O32 P4 C86 H50"
_cell_length_a       14.4794
_cell_length_b       10.5573
_cell_length_c       23.316
_cell_angle_alpha    90
_cell_angle_beta     107.316
_cell_angle_gamma    90

_space_group_name_H-M_alt    "P 1"
_space_group_IT_number       1

loop_
  _space_group_symop_operation_xyz
  'x, y, z'

loop_
  _atom_site_type_symbol
  _atom_site_label
  _atom_site_symmetry_multiplicity
  _atom_site_fract_x
  _atom_site_fract_y
  _atom_site_fract_z
  _atom_site_occupancy
  Tb  Tb1       1.0  0.57409  0.95195  0.23003  1.0000
  Tb  Tb2       1.0  0.92591  0.95195  0.26997  1.0000
  Tb  Tb3       1.0  0.42591  0.04805  0.76997  1.0000
  Tb  Tb4       1.0  0.07409  0.04805  0.73003  1.0000
  O   O1        1.0  0.48610  0.07520  0.14949  1.0000
  O   O2        1.0  0.01390  0.07520  0.35051  1.0000
  O   O3        1.0  0.51390  0.92480  0.85051  1.0000
  O   O4        1.0  0.98610  0.92480  0.64949  1.0000
  O   O5        1.0  0.47000  0.79730  0.15866  1.0000
  O   O6        1.0  0.03000  0.79730  0.34134  1.0000
  O   O7        1.0  0.53000  0.20270  0.84134  1.0000
  O   O8        1.0  0.97000  0.20270  0.65866  1.0000
  O   O9        1.0  0.58060  0.72470  0.23828  1.0000
  O   O10       1.0  0.91940  0.72470  0.26172  1.0000
  O   O11       1.0  0.41940  0.27530  0.76172  1.0000
  O   O12       1.0  0.08060  0.27530  0.73828  1.0000
  O   O13       1.0  0.05040  0.90070  0.22199  1.0000
  O   O14       1.0  0.44960  0.90070  0.27801  1.0000
  O   O15       1.0  0.94960  0.09930  0.77801  1.0000
  O   O16       1.0  0.55040  0.09930  0.72199  1.0000
  O   O17       1.0  0.00630  0.09830  0.22062  1.0000
  O   O18       1.0  0.49370  0.09830  0.27938  1.0000
  O   O19       1.0  0.99370  0.90170  0.77938  1.0000
  O   O20       1.0  0.50630  0.90170  0.72062  1.0000
  O   O21       1.0  0.32210  0.09900  0.82261  1.0000
  O   O22       1.0  0.17790  0.09900  0.67739  1.0000
  O   O23       1.0  0.67790  0.90100  0.17739  1.0000
  O   O24       1.0  0.82210  0.90100  0.32261  1.0000
  O   O25       1.0  0.17300  0.08920  0.82713  1.0000
  O   O26       1.0  0.32700  0.08920  0.67287  1.0000
  O   O27       1.0  0.82700  0.91080  0.17287  1.0000
  O   O28       1.0  0.67300  0.91080  0.32713  1.0000
  O   O29       1.0  0.67330  0.13280  0.24817  1.0000
  O   O30       1.0  0.82670  0.13280  0.25183  1.0000
  O   O31       1.0  0.32670  0.86720  0.75183  1.0000
  O   O32       1.0  0.17330  0.86720  0.74817  1.0000
  P   P1        1.0  0.40153  0.16027  0.12202  1.0000
  P   P2        1.0  0.09847  0.16027  0.37798  1.0000
  P   P3        1.0  0.59847  0.83973  0.87798  1.0000
  P   P4        1.0  0.90153  0.83973  0.62202  1.0000
  C   C1        1.0  0.29990  0.12160  0.14790  1.0000
  C   C2        1.0  0.20010  0.12160  0.35210  1.0000
  C   C3        1.0  0.70010  0.87840  0.85210  1.0000
  C   C4        1.0  0.79990  0.87840  0.64790  1.0000
  C   C5        1.0  0.23850  0.21160  0.15900  1.0000
  C   C6        1.0  0.26150  0.21160  0.34100  1.0000
  C   C7        1.0  0.76150  0.78840  0.84100  1.0000
  C   C8        1.0  0.73850  0.78840  0.65900  1.0000
  H   H1        1.0  0.25000  0.29680  0.15380  1.0000
  H   H2        1.0  0.25000  0.29680  0.34620  1.0000
  H   H3        1.0  0.75000  0.70320  0.84620  1.0000
  H   H4        1.0  0.75000  0.70320  0.65380  1.0000
  C   C9        1.0  0.43210  0.32200  0.13840  1.0000
  C   C10       1.0  0.06790  0.32200  0.36160  1.0000
  C   C11       1.0  0.56790  0.67800  0.86160  1.0000
  C   C12       1.0  0.93210  0.67800  0.63840  1.0000
  C   C13       1.0  0.50490  0.35010  0.19070  1.0000
  C   C14       1.0  0.99510  0.35010  0.30930  1.0000
  C   C15       1.0  0.49510  0.64990  0.80930  1.0000
  C   C16       1.0  0.00490  0.64990  0.69070  1.0000
  H   H5        1.0  0.53730  0.28440  0.21510  1.0000
  H   H6        1.0  0.96270  0.28440  0.28490  1.0000
  H   H7        1.0  0.46270  0.71560  0.78490  1.0000
  H   H8        1.0  0.03730  0.71560  0.71510  1.0000
  C   C17       1.0  0.36030  0.14450  0.04180  1.0000
  C   C18       1.0  0.13970  0.14450  0.45820  1.0000
  C   C19       1.0  0.63970  0.85550  0.95820  1.0000
  C   C20       1.0  0.86030  0.85550  0.54180  1.0000
  C   C21       1.0  0.26310  0.13600  0.01120  1.0000
  C   C22       1.0  0.23690  0.13600  0.48880  1.0000
  C   C23       1.0  0.73690  0.86400  0.98880  1.0000
  C   C24       1.0  0.76310  0.86400  0.51120  1.0000
  H   H9        1.0  0.21780  0.13930  0.03220  1.0000
  H   H10       1.0  0.28220  0.13930  0.46780  1.0000
  H   H11       1.0  0.78220  0.86070  0.96780  1.0000
  H   H12       1.0  0.71780  0.86070  0.53220  1.0000
  C   C25       1.0  0.23260  0.12280  0.94980  1.0000
  C   C26       1.0  0.26740  0.12280  0.55020  1.0000
  C   C27       1.0  0.76740  0.87720  0.05020  1.0000
  C   C28       1.0  0.73260  0.87720  0.44980  1.0000
  H   H13       1.0  0.16670  0.11800  0.92980  1.0000
  H   H14       1.0  0.33330  0.11800  0.57020  1.0000
  H   H15       1.0  0.83330  0.88200  0.07020  1.0000
  H   H16       1.0  0.66670  0.88200  0.42980  1.0000
  C   C29       1.0  0.42610  0.14150  0.00970  1.0000
  C   C30       1.0  0.07390  0.14150  0.49030  1.0000
  C   C31       1.0  0.57390  0.85850  0.99030  1.0000
  C   C32       1.0  0.92610  0.85850  0.50970  1.0000
  H   H17       1.0  0.49190  0.14950  0.02950  1.0000
  H   H18       1.0  0.00810  0.14950  0.47050  1.0000
  H   H19       1.0  0.50810  0.85050  0.97050  1.0000
  H   H20       1.0  0.99190  0.85050  0.52950  1.0000
  C   C33       1.0  0.52980  0.47290  0.20710  1.0000
  C   C34       1.0  0.97020  0.47290  0.29290  1.0000
  C   C35       1.0  0.47020  0.52710  0.79290  1.0000
  C   C36       1.0  0.02980  0.52710  0.70710  1.0000
  H   H21       1.0  0.57830  0.48950  0.24270  1.0000
  H   H22       1.0  0.92170  0.48950  0.25730  1.0000
  H   H23       1.0  0.42170  0.51050  0.75730  1.0000
  H   H24       1.0  0.07830  0.51050  0.74270  1.0000
  C   C37       1.0  0.48330  0.57390  0.17090  1.0000
  C   C38       1.0  0.01670  0.57390  0.32910  1.0000
  C   C39       1.0  0.51670  0.42610  0.82910  1.0000
  C   C40       1.0  0.98330  0.42610  0.67090  1.0000
  C   C41       1.0  0.41140  0.54660  0.11870  1.0000
  C   C42       1.0  0.08860  0.54660  0.38130  1.0000
  C   C43       1.0  0.58860  0.45340  0.88130  1.0000
  C   C44       1.0  0.91140  0.45340  0.61870  1.0000
  H   H25       1.0  0.37950  0.61220  0.09410  1.0000
  H   H26       1.0  0.12050  0.61220  0.40590  1.0000
  H   H27       1.0  0.62050  0.38780  0.90590  1.0000
  H   H28       1.0  0.87950  0.38780  0.59410  1.0000
  C   C45       1.0  0.38580  0.42190  0.10230  1.0000
  C   C46       1.0  0.11420  0.42190  0.39770  1.0000
  C   C47       1.0  0.61420  0.57810  0.89770  1.0000
  C   C48       1.0  0.88580  0.57810  0.60230  1.0000
  H   H29       1.0  0.33720  0.40500  0.06690  1.0000
  H   H30       1.0  0.16280  0.40500  0.43310  1.0000
  H   H31       1.0  0.66280  0.59500  0.93310  1.0000
  H   H32       1.0  0.83720  0.59500  0.56690  1.0000
  C   C49       1.0  0.51330  0.70660  0.19090  1.0000
  C   C50       1.0  0.98670  0.70660  0.30910  1.0000
  C   C51       1.0  0.48670  0.29340  0.80910  1.0000
  C   C52       1.0  0.01330  0.29340  0.69090  1.0000
  C   C53       1.0  0.28010  0.99520  0.15560  1.0000
  C   C54       1.0  0.21990  0.99520  0.34440  1.0000
  C   C55       1.0  0.71990  0.00480  0.84440  1.0000
  C   C56       1.0  0.78010  0.00480  0.65560  1.0000
  H   H33       1.0  0.32060  0.93300  0.14820  1.0000
  H   H34       1.0  0.17940  0.93300  0.35180  1.0000
  H   H35       1.0  0.67940  0.06700  0.85180  1.0000
  H   H36       1.0  0.82060  0.06700  0.64820  1.0000
  C   C57       1.0  0.20280  0.96040  0.17370  1.0000
  C   C58       1.0  0.29720  0.96040  0.32630  1.0000
  C   C59       1.0  0.79720  0.03960  0.82630  1.0000
  C   C60       1.0  0.70280  0.03960  0.67370  1.0000
  H   H37       1.0  0.19010  0.87510  0.17760  1.0000
  H   H38       1.0  0.30990  0.87510  0.32240  1.0000
  H   H39       1.0  0.80990  0.12490  0.82240  1.0000
  H   H40       1.0  0.69010  0.12490  0.67760  1.0000
  C   C61       1.0  0.14310  0.05120  0.18630  1.0000
  C   C62       1.0  0.35690  0.05120  0.31370  1.0000
  C   C63       1.0  0.85690  0.94880  0.81370  1.0000
  C   C64       1.0  0.64310  0.94880  0.68630  1.0000
  C   C65       1.0  0.15990  0.17740  0.17790  1.0000
  C   C66       1.0  0.34010  0.17740  0.32210  1.0000
  C   C67       1.0  0.84010  0.82260  0.82210  1.0000
  C   C68       1.0  0.65990  0.82260  0.67790  1.0000
  H   H41       1.0  0.11880  0.23920  0.18490  1.0000
  H   H42       1.0  0.38120  0.23920  0.31510  1.0000
  H   H43       1.0  0.88120  0.76080  0.81510  1.0000
  H   H44       1.0  0.61880  0.76080  0.68490  1.0000
  C   C69       1.0  0.06050  0.01530  0.21010  1.0000
  C   C70       1.0  0.43950  0.01530  0.28990  1.0000
  C   C71       1.0  0.93950  0.98470  0.78990  1.0000
  C   C72       1.0  0.56050  0.98470  0.71010  1.0000
  C   C73       1.0  0.39480  0.12680  0.94780  1.0000
  C   C74       1.0  0.10520  0.12680  0.55220  1.0000
  C   C75       1.0  0.60520  0.87320  0.05220  1.0000
  C   C76       1.0  0.89480  0.87320  0.44780  1.0000
  H   H45       1.0  0.43970  0.12390  0.92650  1.0000
  H   H46       1.0  0.06030  0.12390  0.57350  1.0000
  H   H47       1.0  0.56030  0.87610  0.07350  1.0000
  H   H48       1.0  0.93970  0.87610  0.42650  1.0000
  C   C77       1.0  0.29750  0.11650  0.91750  1.0000
  C   C78       1.0  0.20250  0.11650  0.58250  1.0000
  C   C79       1.0  0.70250  0.88350  0.08250  1.0000
  C   C80       1.0  0.79750  0.88350  0.41750  1.0000
  C   C81       1.0  0.26190  0.09960  0.85050  1.0000
  C   C82       1.0  0.23810  0.09960  0.64950  1.0000
  C   C83       1.0  0.73810  0.90040  0.14950  1.0000
  C   C84       1.0  0.76190  0.90040  0.35050  1.0000
  C   C85       1.0  0.75000  0.17980  0.25000  1.0000
  C   C86       1.0  0.25000  0.82020  0.75000  1.0000
  H   H49       1.0  0.75000  0.26790  0.25000  1.0000
  H   H50       1.0  0.25000  0.73210  0.75000  1.0000
