data_image0
_chemical_formula_structural       Ho4Cl4S4Cl4S4N24C8N4C8N4H24
_chemical_formula_sum              "Ho4 Cl8 S8 N32 C16 H24"
_cell_length_a       13.026
_cell_length_b       9.901
_cell_length_c       14.842
_cell_angle_alpha    90
_cell_angle_beta     95.7
_cell_angle_gamma    90

_space_group_name_H-M_alt    "P 1"
_space_group_IT_number       1

loop_
  _space_group_symop_operation_xyz
  'x, y, z'

loop_
  _atom_site_type_symbol
  _atom_site_label
  _atom_site_symmetry_multiplicity
  _atom_site_fract_x
  _atom_site_fract_y
  _atom_site_fract_z
  _atom_site_occupancy
  Ho  Ho1       1.0  0.30390  0.70305  0.23187  1.0000
  Ho  Ho2       1.0  0.69610  0.20305  0.26813  1.0000
  Ho  Ho3       1.0  0.69610  0.29695  0.76813  1.0000
  Ho  Ho4       1.0  0.30390  0.79695  0.73187  1.0000
  Cl  Cl1       1.0  0.33498  0.67443  0.05918  1.0000
  Cl  Cl2       1.0  0.66502  0.17443  0.44082  1.0000
  Cl  Cl3       1.0  0.66502  0.32557  0.94082  1.0000
  Cl  Cl4       1.0  0.33498  0.82557  0.55918  1.0000
  S   S1        1.0  0.39596  0.61416  0.40610  1.0000
  S   S2        1.0  0.60404  0.11416  0.09390  1.0000
  S   S3        1.0  0.60404  0.38584  0.59390  1.0000
  S   S4        1.0  0.39596  0.88584  0.90610  1.0000
  Cl  Cl5       1.0  0.17084  0.50806  0.21652  1.0000
  Cl  Cl6       1.0  0.82916  0.00806  0.28348  1.0000
  Cl  Cl7       1.0  0.82916  0.49194  0.78348  1.0000
  Cl  Cl8       1.0  0.17084  0.99194  0.71652  1.0000
  S   S5        1.0  0.18738  0.86123  0.34619  1.0000
  S   S6        1.0  0.81262  0.36123  0.15381  1.0000
  S   S7        1.0  0.81262  0.13877  0.65381  1.0000
  S   S8        1.0  0.18738  0.63877  0.84619  1.0000
  N   N1        1.0  0.44781  0.54490  0.24297  1.0000
  N   N2        1.0  0.55219  0.04490  0.25703  1.0000
  N   N3        1.0  0.55219  0.45510  0.75703  1.0000
  N   N4        1.0  0.44781  0.95510  0.74297  1.0000
  N   N5        1.0  0.56696  0.38040  0.26853  1.0000
  N   N6        1.0  0.43304  0.88040  0.23147  1.0000
  N   N7        1.0  0.43304  0.61960  0.73147  1.0000
  N   N8        1.0  0.56696  0.11960  0.76853  1.0000
  N   N9        1.0  0.18619  0.87320  0.16550  1.0000
  N   N10       1.0  0.81381  0.37320  0.33450  1.0000
  N   N11       1.0  0.81381  0.12680  0.83450  1.0000
  N   N12       1.0  0.18619  0.62680  0.66550  1.0000
  N   N13       1.0  0.04217  0.99090  0.11663  1.0000
  N   N14       1.0  0.95783  0.49090  0.38337  1.0000
  N   N15       1.0  0.95783  0.00910  0.88337  1.0000
  N   N16       1.0  0.04217  0.50910  0.61663  1.0000
  N   N17       1.0  0.05356  0.97840  0.21076  1.0000
  N   N18       1.0  0.94644  0.47840  0.28924  1.0000
  N   N19       1.0  0.94644  0.02160  0.78924  1.0000
  N   N20       1.0  0.05356  0.52160  0.71076  1.0000
  N   N21       1.0  0.14780  0.91660  0.00672  1.0000
  N   N22       1.0  0.85220  0.41660  0.49328  1.0000
  N   N23       1.0  0.85220  0.08340  0.99328  1.0000
  N   N24       1.0  0.14780  0.58340  0.50672  1.0000
  C   C1        1.0  0.12446  0.92530  0.09336  1.0000
  C   C2        1.0  0.87554  0.42530  0.40664  1.0000
  C   C3        1.0  0.87554  0.07470  0.90664  1.0000
  C   C4        1.0  0.12446  0.57470  0.59336  1.0000
  C   C5        1.0  0.13820  0.90820  0.23852  1.0000
  C   C6        1.0  0.86180  0.40820  0.26148  1.0000
  C   C7        1.0  0.86180  0.09180  0.76148  1.0000
  C   C8        1.0  0.13820  0.59180  0.73852  1.0000
  N   N25       1.0  0.53312  0.42630  0.34923  1.0000
  N   N26       1.0  0.46688  0.92630  0.15077  1.0000
  N   N27       1.0  0.46688  0.57370  0.65077  1.0000
  N   N28       1.0  0.53312  0.07370  0.84923  1.0000
  C   C9        1.0  0.51240  0.45650  0.20665  1.0000
  C   C10       1.0  0.48760  0.95650  0.29335  1.0000
  C   C11       1.0  0.48760  0.54350  0.79335  1.0000
  C   C12       1.0  0.51240  0.04350  0.70665  1.0000
  C   C13       1.0  0.46268  0.52320  0.33318  1.0000
  C   C14       1.0  0.53732  0.02320  0.16682  1.0000
  C   C15       1.0  0.53732  0.47680  0.66682  1.0000
  C   C16       1.0  0.46268  0.97680  0.83318  1.0000
  N   N29       1.0  0.52200  0.45210  0.11725  1.0000
  N   N30       1.0  0.47800  0.95210  0.38275  1.0000
  N   N31       1.0  0.47800  0.54790  0.88275  1.0000
  N   N32       1.0  0.52200  0.04790  0.61725  1.0000
  H   H1        1.0  0.10300  0.93000  0.96600  1.0000
  H   H2        1.0  0.89700  0.43000  0.53400  1.0000
  H   H3        1.0  0.89700  0.07000  0.03400  1.0000
  H   H4        1.0  0.10300  0.57000  0.46600  1.0000
  H   H5        1.0  0.48200  0.48800  0.08900  1.0000
  H   H6        1.0  0.51800  0.98800  0.41100  1.0000
  H   H7        1.0  0.51800  0.51200  0.91100  1.0000
  H   H8        1.0  0.48200  0.01200  0.58900  1.0000
  H   H9        1.0  0.55100  0.39900  0.39200  1.0000
  H   H10       1.0  0.44900  0.89900  0.10800  1.0000
  H   H11       1.0  0.44900  0.60100  0.60800  1.0000
  H   H12       1.0  0.55100  0.10100  0.89200  1.0000
  H   H13       1.0  0.55700  0.39100  0.09600  1.0000
  H   H14       1.0  0.44300  0.89100  0.40400  1.0000
  H   H15       1.0  0.44300  0.60900  0.90400  1.0000
  H   H16       1.0  0.55700  0.10900  0.59600  1.0000
  H   H17       1.0  0.18800  0.86300  0.99600  1.0000
  H   H18       1.0  0.81200  0.36300  0.50400  1.0000
  H   H19       1.0  0.81200  0.13700  0.00400  1.0000
  H   H20       1.0  0.18800  0.63700  0.49600  1.0000
  H   H21       1.0  0.01000  0.99600  0.23700  1.0000
  H   H22       1.0  0.99000  0.49600  0.26300  1.0000
  H   H23       1.0  0.99000  0.00400  0.76300  1.0000
  H   H24       1.0  0.01000  0.50400  0.73700  1.0000
