data_image0
_chemical_formula_structural       Bi4O48N8C16H8C16H8C32
_chemical_formula_sum              "Bi4 O48 N8 C64 H16"
_cell_length_a       17.2134
_cell_length_b       11.566
_cell_length_c       18.0478
_cell_angle_alpha    90
_cell_angle_beta     91.009
_cell_angle_gamma    90

_space_group_name_H-M_alt    "P 1"
_space_group_IT_number       1

loop_
  _space_group_symop_operation_xyz
  'x, y, z'

loop_
  _atom_site_type_symbol
  _atom_site_label
  _atom_site_symmetry_multiplicity
  _atom_site_fract_x
  _atom_site_fract_y
  _atom_site_fract_z
  _atom_site_occupancy
  Bi  Bi1       1.0  0.75000  0.48667  0.50000  1.0000
  Bi  Bi2       1.0  0.25000  0.98667  0.00000  1.0000
  Bi  Bi3       1.0  0.25000  0.51333  0.50000  1.0000
  Bi  Bi4       1.0  0.75000  0.01333  0.00000  1.0000
  O   O1        1.0  0.67460  0.41610  0.39170  1.0000
  O   O2        1.0  0.82540  0.41610  0.60830  1.0000
  O   O3        1.0  0.17460  0.91610  0.89170  1.0000
  O   O4        1.0  0.32540  0.91610  0.10830  1.0000
  O   O5        1.0  0.32540  0.58390  0.60830  1.0000
  O   O6        1.0  0.17460  0.58390  0.39170  1.0000
  O   O7        1.0  0.82540  0.08390  0.10830  1.0000
  O   O8        1.0  0.67460  0.08390  0.89170  1.0000
  O   O9        1.0  0.56850  0.42140  0.32060  1.0000
  O   O10       1.0  0.93150  0.42140  0.67940  1.0000
  O   O11       1.0  0.06850  0.92140  0.82060  1.0000
  O   O12       1.0  0.43150  0.92140  0.17940  1.0000
  O   O13       1.0  0.43150  0.57860  0.67940  1.0000
  O   O14       1.0  0.06850  0.57860  0.32060  1.0000
  O   O15       1.0  0.93150  0.07860  0.17940  1.0000
  O   O16       1.0  0.56850  0.07860  0.82060  1.0000
  O   O17       1.0  0.37530  0.80000  0.49790  1.0000
  O   O18       1.0  0.12470  0.80000  0.50210  1.0000
  O   O19       1.0  0.87530  0.30000  0.99790  1.0000
  O   O20       1.0  0.62470  0.30000  0.00210  1.0000
  O   O21       1.0  0.62470  0.20000  0.50210  1.0000
  O   O22       1.0  0.87530  0.20000  0.49790  1.0000
  O   O23       1.0  0.12470  0.70000  0.00210  1.0000
  O   O24       1.0  0.37530  0.70000  0.99790  1.0000
  O   O25       1.0  0.34130  0.64290  0.43340  1.0000
  O   O26       1.0  0.15870  0.64290  0.56660  1.0000
  O   O27       1.0  0.84130  0.14290  0.93340  1.0000
  O   O28       1.0  0.65870  0.14290  0.06660  1.0000
  O   O29       1.0  0.65870  0.35710  0.56660  1.0000
  O   O30       1.0  0.84130  0.35710  0.43340  1.0000
  O   O31       1.0  0.15870  0.85710  0.06660  1.0000
  O   O32       1.0  0.34130  0.85710  0.93340  1.0000
  O   O33       1.0  0.63680  0.75810  0.63720  1.0000
  O   O34       1.0  0.86320  0.75810  0.36280  1.0000
  O   O35       1.0  0.13680  0.25810  0.13720  1.0000
  O   O36       1.0  0.36320  0.25810  0.86280  1.0000
  O   O37       1.0  0.36320  0.24190  0.36280  1.0000
  O   O38       1.0  0.13680  0.24190  0.63720  1.0000
  O   O39       1.0  0.86320  0.74190  0.86280  1.0000
  O   O40       1.0  0.63680  0.74190  0.13720  1.0000
  O   O41       1.0  0.72000  0.63190  0.59100  1.0000
  O   O42       1.0  0.78000  0.63190  0.40900  1.0000
  O   O43       1.0  0.22000  0.13190  0.09100  1.0000
  O   O44       1.0  0.28000  0.13190  0.90900  1.0000
  O   O45       1.0  0.28000  0.36810  0.40900  1.0000
  O   O46       1.0  0.22000  0.36810  0.59100  1.0000
  O   O47       1.0  0.78000  0.86810  0.90900  1.0000
  O   O48       1.0  0.72000  0.86810  0.09100  1.0000
  N   N1        1.0  0.62290  0.58330  0.47920  1.0000
  N   N2        1.0  0.87710  0.58330  0.52080  1.0000
  N   N3        1.0  0.12290  0.08330  0.97920  1.0000
  N   N4        1.0  0.37710  0.08330  0.02080  1.0000
  N   N5        1.0  0.37710  0.41670  0.52080  1.0000
  N   N6        1.0  0.12290  0.41670  0.47920  1.0000
  N   N7        1.0  0.87710  0.91670  0.02080  1.0000
  N   N8        1.0  0.62290  0.91670  0.97920  1.0000
  C   C1        1.0  0.57610  0.54850  0.42370  1.0000
  C   C2        1.0  0.92390  0.54850  0.57630  1.0000
  C   C3        1.0  0.07610  0.04850  0.92370  1.0000
  C   C4        1.0  0.42390  0.04850  0.07630  1.0000
  C   C5        1.0  0.42390  0.45150  0.57630  1.0000
  C   C6        1.0  0.07610  0.45150  0.42370  1.0000
  C   C7        1.0  0.92390  0.95150  0.07630  1.0000
  C   C8        1.0  0.57610  0.95150  0.92370  1.0000
  C   C9        1.0  0.49920  0.58950  0.41690  1.0000
  C   C10       1.0  0.00080  0.58950  0.58310  1.0000
  C   C11       1.0  0.99920  0.08950  0.91690  1.0000
  C   C12       1.0  0.50080  0.08950  0.08310  1.0000
  C   C13       1.0  0.50080  0.41050  0.58310  1.0000
  C   C14       1.0  0.99920  0.41050  0.41690  1.0000
  C   C15       1.0  0.00080  0.91050  0.08310  1.0000
  C   C16       1.0  0.49920  0.91050  0.91690  1.0000
  H   H1        1.0  0.46618  0.56434  0.37738  1.0000
  H   H2        1.0  0.03382  0.56434  0.62262  1.0000
  H   H3        1.0  0.96618  0.06434  0.87738  1.0000
  H   H4        1.0  0.53382  0.06434  0.12262  1.0000
  H   H5        1.0  0.53382  0.43566  0.62262  1.0000
  H   H6        1.0  0.96618  0.43566  0.37738  1.0000
  H   H7        1.0  0.03382  0.93566  0.12262  1.0000
  H   H8        1.0  0.46618  0.93566  0.87738  1.0000
  C   C17       1.0  0.47290  0.66710  0.46890  1.0000
  C   C18       1.0  0.02710  0.66710  0.53110  1.0000
  C   C19       1.0  0.97290  0.16710  0.96890  1.0000
  C   C20       1.0  0.52710  0.16710  0.03110  1.0000
  C   C21       1.0  0.52710  0.33290  0.53110  1.0000
  C   C22       1.0  0.97290  0.33290  0.46890  1.0000
  C   C23       1.0  0.02710  0.83290  0.03110  1.0000
  C   C24       1.0  0.47290  0.83290  0.96890  1.0000
  C   C25       1.0  0.52360  0.70460  0.52640  1.0000
  C   C26       1.0  0.97640  0.70460  0.47360  1.0000
  C   C27       1.0  0.02360  0.20460  0.02640  1.0000
  C   C28       1.0  0.47640  0.20460  0.97360  1.0000
  C   C29       1.0  0.47640  0.29540  0.47360  1.0000
  C   C30       1.0  0.02360  0.29540  0.52640  1.0000
  C   C31       1.0  0.97640  0.79540  0.97360  1.0000
  C   C32       1.0  0.52360  0.79540  0.02640  1.0000
  H   H9        1.0  0.50727  0.75986  0.56183  1.0000
  H   H10       1.0  0.99273  0.75986  0.43817  1.0000
  H   H11       1.0  0.00727  0.25986  0.06183  1.0000
  H   H12       1.0  0.49273  0.25986  0.93817  1.0000
  H   H13       1.0  0.49273  0.24014  0.43817  1.0000
  H   H14       1.0  0.00727  0.24014  0.56183  1.0000
  H   H15       1.0  0.99273  0.74014  0.93817  1.0000
  H   H16       1.0  0.50727  0.74014  0.06183  1.0000
  C   C33       1.0  0.59760  0.65860  0.52960  1.0000
  C   C34       1.0  0.90240  0.65860  0.47040  1.0000
  C   C35       1.0  0.09760  0.15860  0.02960  1.0000
  C   C36       1.0  0.40240  0.15860  0.97040  1.0000
  C   C37       1.0  0.40240  0.34140  0.47040  1.0000
  C   C38       1.0  0.09760  0.34140  0.52960  1.0000
  C   C39       1.0  0.90240  0.84140  0.97040  1.0000
  C   C40       1.0  0.59760  0.84140  0.02960  1.0000
  C   C41       1.0  0.60700  0.45620  0.37230  1.0000
  C   C42       1.0  0.89300  0.45620  0.62770  1.0000
  C   C43       1.0  0.10700  0.95620  0.87230  1.0000
  C   C44       1.0  0.39300  0.95620  0.12770  1.0000
  C   C45       1.0  0.39300  0.54380  0.62770  1.0000
  C   C46       1.0  0.10700  0.54380  0.37230  1.0000
  C   C47       1.0  0.89300  0.04380  0.12770  1.0000
  C   C48       1.0  0.60700  0.04380  0.87230  1.0000
  C   C49       1.0  0.38820  0.70890  0.46780  1.0000
  C   C50       1.0  0.11180  0.70890  0.53220  1.0000
  C   C51       1.0  0.88820  0.20890  0.96780  1.0000
  C   C52       1.0  0.61180  0.20890  0.03220  1.0000
  C   C53       1.0  0.61180  0.29110  0.53220  1.0000
  C   C54       1.0  0.88820  0.29110  0.46780  1.0000
  C   C55       1.0  0.11180  0.79110  0.03220  1.0000
  C   C56       1.0  0.38820  0.79110  0.96780  1.0000
  C   C57       1.0  0.65540  0.68850  0.59160  1.0000
  C   C58       1.0  0.84460  0.68850  0.40840  1.0000
  C   C59       1.0  0.15540  0.18850  0.09160  1.0000
  C   C60       1.0  0.34460  0.18850  0.90840  1.0000
  C   C61       1.0  0.34460  0.31150  0.40840  1.0000
  C   C62       1.0  0.15540  0.31150  0.59160  1.0000
  C   C63       1.0  0.84460  0.81150  0.90840  1.0000
  C   C64       1.0  0.65540  0.81150  0.09160  1.0000
