data_image0
_chemical_formula_structural       Ni4K6F144O28C68H8C4H8C4H8C4H8C4H8C4H8
_chemical_formula_sum              "Ni4 K6 F144 O28 C88 H48"
_cell_length_a       15.313
_cell_length_b       13.3096
_cell_length_c       27.783
_cell_angle_alpha    90
_cell_angle_beta     102.933
_cell_angle_gamma    90

_space_group_name_H-M_alt    "P 1"
_space_group_IT_number       1

loop_
  _space_group_symop_operation_xyz
  'x, y, z'

loop_
  _atom_site_type_symbol
  _atom_site_label
  _atom_site_symmetry_multiplicity
  _atom_site_fract_x
  _atom_site_fract_y
  _atom_site_fract_z
  _atom_site_occupancy
  Ni  Ni1       1.0  0.82845  0.50255  0.24813  1.0000
  Ni  Ni2       1.0  0.17155  0.00255  0.25187  1.0000
  Ni  Ni3       1.0  0.17155  0.49745  0.75187  1.0000
  Ni  Ni4       1.0  0.82845  0.99745  0.74813  1.0000
  K   K1        1.0  0.00000  0.50000  0.00000  1.0000
  K   K2        1.0  0.00000  0.00000  0.50000  1.0000
  K   K3        1.0  0.96472  0.68599  0.24181  1.0000
  K   K4        1.0  0.03528  0.18599  0.25819  1.0000
  K   K5        1.0  0.03528  0.31401  0.75819  1.0000
  K   K6        1.0  0.96472  0.81401  0.74181  1.0000
  F   F1        1.0  0.86241  0.38811  0.07932  1.0000
  F   F2        1.0  0.13759  0.88811  0.42068  1.0000
  F   F3        1.0  0.13759  0.61189  0.92068  1.0000
  F   F4        1.0  0.86241  0.11189  0.57932  1.0000
  F   F5        1.0  0.75753  0.45405  0.10932  1.0000
  F   F6        1.0  0.24247  0.95405  0.39068  1.0000
  F   F7        1.0  0.24247  0.54595  0.89068  1.0000
  F   F8        1.0  0.75753  0.04595  0.60932  1.0000
  F   F9        1.0  0.83098  0.32730  0.14533  1.0000
  F   F10       1.0  0.16902  0.82730  0.35467  1.0000
  F   F11       1.0  0.16902  0.67270  0.85467  1.0000
  F   F12       1.0  0.83098  0.17270  0.64533  1.0000
  F   F13       1.0  0.99461  0.52814  0.09489  1.0000
  F   F14       1.0  0.00539  0.02814  0.40511  1.0000
  F   F15       1.0  0.00539  0.47186  0.90511  1.0000
  F   F16       1.0  0.99461  0.97186  0.59489  1.0000
  F   F17       1.0  0.86632  0.60084  0.08686  1.0000
  F   F18       1.0  0.13368  0.10084  0.41314  1.0000
  F   F19       1.0  0.13368  0.39916  0.91314  1.0000
  F   F20       1.0  0.86632  0.89916  0.58686  1.0000
  F   F21       1.0  0.97620  0.64347  0.14555  1.0000
  F   F22       1.0  0.02380  0.14347  0.35445  1.0000
  F   F23       1.0  0.02380  0.35653  0.85445  1.0000
  F   F24       1.0  0.97620  0.85653  0.64555  1.0000
  F   F25       1.0  0.05767  0.48782  0.20038  1.0000
  F   F26       1.0  0.94233  0.98782  0.29962  1.0000
  F   F27       1.0  0.94233  0.51218  0.79962  1.0000
  F   F28       1.0  0.05767  0.01218  0.70038  1.0000
  F   F29       1.0  0.97296  0.36875  0.21669  1.0000
  F   F30       1.0  0.02704  0.86875  0.28331  1.0000
  F   F31       1.0  0.02704  0.63125  0.78331  1.0000
  F   F32       1.0  0.97296  0.13125  0.71669  1.0000
  F   F33       1.0  0.02220  0.36271  0.15029  1.0000
  F   F34       1.0  0.97780  0.86271  0.34971  1.0000
  F   F35       1.0  0.97780  0.63729  0.84971  1.0000
  F   F36       1.0  0.02220  0.13729  0.65029  1.0000
  F   F37       1.0  0.61400  0.59350  0.26210  1.0000
  F   F38       1.0  0.38600  0.09350  0.23790  1.0000
  F   F39       1.0  0.38600  0.40650  0.73790  1.0000
  F   F40       1.0  0.61400  0.90650  0.76210  1.0000
  F   F41       1.0  0.69630  0.67470  0.32203  1.0000
  F   F42       1.0  0.30370  0.17470  0.17797  1.0000
  F   F43       1.0  0.30370  0.32530  0.67797  1.0000
  F   F44       1.0  0.69630  0.82530  0.82203  1.0000
  F   F45       1.0  0.59342  0.75193  0.26997  1.0000
  F   F46       1.0  0.40658  0.25193  0.23003  1.0000
  F   F47       1.0  0.40658  0.24807  0.73003  1.0000
  F   F48       1.0  0.59342  0.74807  0.76997  1.0000
  F   F49       1.0  0.77184  0.84002  0.29464  1.0000
  F   F50       1.0  0.22816  0.34002  0.20536  1.0000
  F   F51       1.0  0.22816  0.15998  0.70536  1.0000
  F   F52       1.0  0.77184  0.65998  0.79464  1.0000
  F   F53       1.0  0.68817  0.87494  0.22391  1.0000
  F   F54       1.0  0.31183  0.37494  0.27609  1.0000
  F   F55       1.0  0.31183  0.12506  0.77609  1.0000
  F   F56       1.0  0.68817  0.62506  0.72391  1.0000
  F   F57       1.0  0.82535  0.82938  0.23047  1.0000
  F   F58       1.0  0.17465  0.32938  0.26953  1.0000
  F   F59       1.0  0.17465  0.17062  0.76953  1.0000
  F   F60       1.0  0.82535  0.67062  0.73047  1.0000
  F   F61       1.0  0.72750  0.71719  0.15742  1.0000
  F   F62       1.0  0.27250  0.21719  0.34258  1.0000
  F   F63       1.0  0.27250  0.28281  0.84258  1.0000
  F   F64       1.0  0.72750  0.78281  0.65742  1.0000
  F   F65       1.0  0.67452  0.57982  0.17875  1.0000
  F   F66       1.0  0.32548  0.07982  0.32125  1.0000
  F   F67       1.0  0.32548  0.42018  0.82125  1.0000
  F   F68       1.0  0.67452  0.92018  0.67875  1.0000
  F   F69       1.0  0.59643  0.71524  0.17368  1.0000
  F   F70       1.0  0.40357  0.21524  0.32632  1.0000
  F   F71       1.0  0.40357  0.28476  0.82632  1.0000
  F   F72       1.0  0.59643  0.78476  0.67368  1.0000
  F   F73       1.0  0.13537  0.50977  0.34082  1.0000
  F   F74       1.0  0.86463  0.00977  0.15918  1.0000
  F   F75       1.0  0.86463  0.49023  0.65918  1.0000
  F   F76       1.0  0.13537  0.99023  0.84082  1.0000
  F   F77       1.0  0.10204  0.57658  0.40488  1.0000
  F   F78       1.0  0.89796  0.07658  0.09512  1.0000
  F   F79       1.0  0.89796  0.42342  0.59512  1.0000
  F   F80       1.0  0.10204  0.92342  0.90488  1.0000
  F   F81       1.0  0.06740  0.65147  0.33464  1.0000
  F   F82       1.0  0.93260  0.15147  0.16536  1.0000
  F   F83       1.0  0.93260  0.34853  0.66536  1.0000
  F   F84       1.0  0.06740  0.84853  0.83464  1.0000
  F   F85       1.0  0.92089  0.34732  0.36066  1.0000
  F   F86       1.0  0.07911  0.84732  0.13934  1.0000
  F   F87       1.0  0.07911  0.65268  0.63934  1.0000
  F   F88       1.0  0.92089  0.15268  0.86066  1.0000
  F   F89       1.0  0.02832  0.34514  0.32217  1.0000
  F   F90       1.0  0.97168  0.84514  0.17783  1.0000
  F   F91       1.0  0.97168  0.65486  0.67783  1.0000
  F   F92       1.0  0.02832  0.15486  0.82217  1.0000
  F   F93       1.0  0.05593  0.37959  0.39965  1.0000
  F   F94       1.0  0.94407  0.87959  0.10035  1.0000
  F   F95       1.0  0.94407  0.62041  0.60035  1.0000
  F   F96       1.0  0.05593  0.12041  0.89965  1.0000
  F   F97       1.0  0.94064  0.52467  0.42129  1.0000
  F   F98       1.0  0.05936  0.02467  0.07871  1.0000
  F   F99       1.0  0.05936  0.47533  0.57871  1.0000
  F   F100      1.0  0.94064  0.97533  0.92129  1.0000
  F   F101      1.0  0.91824  0.65221  0.37192  1.0000
  F   F102      1.0  0.08176  0.15221  0.12808  1.0000
  F   F103      1.0  0.08176  0.34779  0.62808  1.0000
  F   F104      1.0  0.91824  0.84779  0.87192  1.0000
  F   F105      1.0  0.83315  0.52225  0.35621  1.0000
  F   F106      1.0  0.16685  0.02225  0.14379  1.0000
  F   F107      1.0  0.16685  0.47775  0.64379  1.0000
  F   F108      1.0  0.83315  0.97775  0.85621  1.0000
  F   F109      1.0  0.58906  0.22543  0.20245  1.0000
  F   F110      1.0  0.41094  0.72543  0.29755  1.0000
  F   F111      1.0  0.41094  0.77457  0.79755  1.0000
  F   F112      1.0  0.58906  0.27457  0.70245  1.0000
  F   F113      1.0  0.66171  0.33220  0.16870  1.0000
  F   F114      1.0  0.33829  0.83220  0.33130  1.0000
  F   F115      1.0  0.33829  0.66780  0.83130  1.0000
  F   F116      1.0  0.66171  0.16780  0.66870  1.0000
  F   F117      1.0  0.57834  0.38400  0.21623  1.0000
  F   F118      1.0  0.42166  0.88400  0.28377  1.0000
  F   F119      1.0  0.42166  0.61600  0.78377  1.0000
  F   F120      1.0  0.57834  0.11600  0.71623  1.0000
  F   F121      1.0  0.77401  0.17844  0.21009  1.0000
  F   F122      1.0  0.22599  0.67844  0.28991  1.0000
  F   F123      1.0  0.22599  0.82156  0.78991  1.0000
  F   F124      1.0  0.77401  0.32156  0.71009  1.0000
  F   F125      1.0  0.71853  0.12696  0.26999  1.0000
  F   F126      1.0  0.28147  0.62696  0.23001  1.0000
  F   F127      1.0  0.28147  0.87304  0.73001  1.0000
  F   F128      1.0  0.71853  0.37304  0.76999  1.0000
  F   F129      1.0  0.84498  0.20220  0.28445  1.0000
  F   F130      1.0  0.15502  0.70220  0.21555  1.0000
  F   F131      1.0  0.15502  0.79780  0.71555  1.0000
  F   F132      1.0  0.84498  0.29780  0.78445  1.0000
  F   F133      1.0  0.66164  0.40982  0.31171  1.0000
  F   F134      1.0  0.33836  0.90982  0.18829  1.0000
  F   F135      1.0  0.33836  0.59018  0.68829  1.0000
  F   F136      1.0  0.66164  0.09018  0.81171  1.0000
  F   F137      1.0  0.74222  0.28522  0.34252  1.0000
  F   F138      1.0  0.25778  0.78522  0.15748  1.0000
  F   F139      1.0  0.25778  0.71478  0.65748  1.0000
  F   F140      1.0  0.74222  0.21478  0.84252  1.0000
  F   F141      1.0  0.60739  0.26108  0.30163  1.0000
  F   F142      1.0  0.39261  0.76108  0.19837  1.0000
  F   F143      1.0  0.39261  0.73892  0.69837  1.0000
  F   F144      1.0  0.60739  0.23892  0.80163  1.0000
  O   O1        1.0  0.87097  0.53511  0.18796  1.0000
  O   O2        1.0  0.12903  0.03511  0.31204  1.0000
  O   O3        1.0  0.12903  0.46489  0.81204  1.0000
  O   O4        1.0  0.87097  0.96489  0.68796  1.0000
  O   O5        1.0  0.79944  0.64372  0.25723  1.0000
  O   O6        1.0  0.20056  0.14372  0.24277  1.0000
  O   O7        1.0  0.20056  0.35628  0.74277  1.0000
  O   O8        1.0  0.79944  0.85628  0.75723  1.0000
  O   O9        1.0  0.94711  0.51824  0.29316  1.0000
  O   O10       1.0  0.05289  0.01824  0.20684  1.0000
  O   O11       1.0  0.05289  0.48176  0.70684  1.0000
  O   O12       1.0  0.94711  0.98176  0.79316  1.0000
  O   O13       1.0  0.77636  0.37765  0.25315  1.0000
  O   O14       1.0  0.22364  0.87765  0.24685  1.0000
  O   O15       1.0  0.22364  0.62235  0.74685  1.0000
  O   O16       1.0  0.77636  0.12235  0.75315  1.0000
  O   O17       1.0  0.09325  0.33132  0.04019  1.0000
  O   O18       1.0  0.90675  0.83132  0.45981  1.0000
  O   O19       1.0  0.90675  0.66868  0.95981  1.0000
  O   O20       1.0  0.09325  0.16868  0.54019  1.0000
  O   O21       1.0  0.17804  0.52015  0.05655  1.0000
  O   O22       1.0  0.82196  0.02015  0.44345  1.0000
  O   O23       1.0  0.82196  0.47985  0.94345  1.0000
  O   O24       1.0  0.17804  0.97985  0.55655  1.0000
  O   O25       1.0  0.06615  0.68930  0.03181  1.0000
  O   O26       1.0  0.93385  0.18930  0.46819  1.0000
  O   O27       1.0  0.93385  0.31070  0.96819  1.0000
  O   O28       1.0  0.06615  0.81070  0.53181  1.0000
  C   C1        1.0  0.90630  0.48600  0.15452  1.0000
  C   C2        1.0  0.09370  0.98600  0.34548  1.0000
  C   C3        1.0  0.09370  0.51400  0.84548  1.0000
  C   C4        1.0  0.90630  0.01400  0.65452  1.0000
  C   C5        1.0  0.83850  0.41270  0.12206  1.0000
  C   C6        1.0  0.16150  0.91270  0.37794  1.0000
  C   C7        1.0  0.16150  0.58730  0.87794  1.0000
  C   C8        1.0  0.83850  0.08730  0.62206  1.0000
  C   C9        1.0  0.93520  0.56500  0.11996  1.0000
  C   C10       1.0  0.06480  0.06500  0.38004  1.0000
  C   C11       1.0  0.06480  0.43500  0.88004  1.0000
  C   C12       1.0  0.93520  0.93500  0.61996  1.0000
  C   C13       1.0  0.99090  0.42490  0.18001  1.0000
  C   C14       1.0  0.00910  0.92490  0.31999  1.0000
  C   C15       1.0  0.00910  0.57510  0.81999  1.0000
  C   C16       1.0  0.99090  0.07510  0.68001  1.0000
  C   C17       1.0  0.72430  0.69930  0.24188  1.0000
  C   C18       1.0  0.27570  0.19930  0.25812  1.0000
  C   C19       1.0  0.27570  0.30070  0.75812  1.0000
  C   C20       1.0  0.72430  0.80070  0.74188  1.0000
  C   C21       1.0  0.65620  0.67980  0.27460  1.0000
  C   C22       1.0  0.34380  0.17980  0.22540  1.0000
  C   C23       1.0  0.34380  0.32020  0.72540  1.0000
  C   C24       1.0  0.65620  0.82020  0.77460  1.0000
  C   C25       1.0  0.75170  0.81220  0.24777  1.0000
  C   C26       1.0  0.24830  0.31220  0.25223  1.0000
  C   C27       1.0  0.24830  0.18780  0.75223  1.0000
  C   C28       1.0  0.75170  0.68780  0.74777  1.0000
  C   C29       1.0  0.68020  0.67880  0.18706  1.0000
  C   C30       1.0  0.31980  0.17880  0.31294  1.0000
  C   C31       1.0  0.31980  0.32120  0.81294  1.0000
  C   C32       1.0  0.68020  0.82120  0.68706  1.0000
  C   C33       1.0  0.98000  0.50670  0.34233  1.0000
  C   C34       1.0  0.02000  0.00670  0.15767  1.0000
  C   C35       1.0  0.02000  0.49330  0.65767  1.0000
  C   C36       1.0  0.98000  0.99330  0.84233  1.0000
  C   C37       1.0  0.07180  0.56110  0.35610  1.0000
  C   C38       1.0  0.92820  0.06110  0.14390  1.0000
  C   C39       1.0  0.92820  0.43890  0.64390  1.0000
  C   C40       1.0  0.07180  0.93890  0.85610  1.0000
  C   C41       1.0  0.99630  0.39340  0.35663  1.0000
  C   C42       1.0  0.00370  0.89340  0.14337  1.0000
  C   C43       1.0  0.00370  0.60660  0.64337  1.0000
  C   C44       1.0  0.99630  0.10660  0.85663  1.0000
  C   C45       1.0  0.91780  0.55170  0.37336  1.0000
  C   C46       1.0  0.08220  0.05170  0.12664  1.0000
  C   C47       1.0  0.08220  0.44830  0.62664  1.0000
  C   C48       1.0  0.91780  0.94830  0.87336  1.0000
  C   C49       1.0  0.71720  0.30610  0.25510  1.0000
  C   C50       1.0  0.28280  0.80610  0.24490  1.0000
  C   C51       1.0  0.28280  0.69390  0.74490  1.0000
  C   C52       1.0  0.71720  0.19390  0.75510  1.0000
  C   C53       1.0  0.63530  0.31090  0.20986  1.0000
  C   C54       1.0  0.36470  0.81090  0.29014  1.0000
  C   C55       1.0  0.36470  0.68910  0.79014  1.0000
  C   C56       1.0  0.63530  0.18910  0.70986  1.0000
  C   C57       1.0  0.76330  0.20240  0.25526  1.0000
  C   C58       1.0  0.23670  0.70240  0.24474  1.0000
  C   C59       1.0  0.23670  0.79760  0.74474  1.0000
  C   C60       1.0  0.76330  0.29760  0.75526  1.0000
  C   C61       1.0  0.68140  0.31560  0.30299  1.0000
  C   C62       1.0  0.31860  0.81560  0.19701  1.0000
  C   C63       1.0  0.31860  0.68440  0.69701  1.0000
  C   C64       1.0  0.68140  0.18440  0.80299  1.0000
  C   C65       1.0  0.07190  0.24230  0.01104  1.0000
  C   C66       1.0  0.92810  0.74230  0.48896  1.0000
  C   C67       1.0  0.92810  0.75770  0.98896  1.0000
  C   C68       1.0  0.07190  0.25770  0.51104  1.0000
  H   H1        1.0  0.10090  0.18340  0.02970  1.0000
  H   H2        1.0  0.89910  0.68340  0.47030  1.0000
  H   H3        1.0  0.89910  0.81660  0.97030  1.0000
  H   H4        1.0  0.10090  0.31660  0.52970  1.0000
  H   H5        1.0  0.09430  0.24830  0.98040  1.0000
  H   H6        1.0  0.90570  0.74830  0.51960  1.0000
  H   H7        1.0  0.90570  0.75170  0.01960  1.0000
  H   H8        1.0  0.09430  0.25170  0.48040  1.0000
  C   C69       1.0  0.18740  0.34180  0.05937  1.0000
  C   C70       1.0  0.81260  0.84180  0.44063  1.0000
  C   C71       1.0  0.81260  0.65820  0.94063  1.0000
  C   C72       1.0  0.18740  0.15820  0.55937  1.0000
  H   H9        1.0  0.21890  0.34470  0.03190  1.0000
  H   H10       1.0  0.78110  0.84470  0.46810  1.0000
  H   H11       1.0  0.78110  0.65530  0.96810  1.0000
  H   H12       1.0  0.21890  0.15530  0.53190  1.0000
  H   H13       1.0  0.21050  0.28340  0.08040  1.0000
  H   H14       1.0  0.78950  0.78340  0.41960  1.0000
  H   H15       1.0  0.78950  0.71660  0.91960  1.0000
  H   H16       1.0  0.21050  0.21660  0.58040  1.0000
  C   C73       1.0  0.20380  0.43610  0.08896  1.0000
  C   C74       1.0  0.79620  0.93610  0.41104  1.0000
  C   C75       1.0  0.79620  0.56390  0.91104  1.0000
  C   C76       1.0  0.20380  0.06390  0.58896  1.0000
  H   H17       1.0  0.16840  0.43560  0.11470  1.0000
  H   H18       1.0  0.83160  0.93560  0.38530  1.0000
  H   H19       1.0  0.83160  0.56440  0.88530  1.0000
  H   H20       1.0  0.16840  0.06440  0.61470  1.0000
  H   H21       1.0  0.26800  0.44130  0.10540  1.0000
  H   H22       1.0  0.73200  0.94130  0.39460  1.0000
  H   H23       1.0  0.73200  0.55870  0.89460  1.0000
  H   H24       1.0  0.26800  0.05870  0.60540  1.0000
  C   C77       1.0  0.19600  0.61320  0.08196  1.0000
  C   C78       1.0  0.80400  0.11320  0.41804  1.0000
  C   C79       1.0  0.80400  0.38680  0.91804  1.0000
  C   C80       1.0  0.19600  0.88680  0.58196  1.0000
  H   H25       1.0  0.26130  0.62100  0.09500  1.0000
  H   H26       1.0  0.73870  0.12100  0.40500  1.0000
  H   H27       1.0  0.73870  0.37900  0.90500  1.0000
  H   H28       1.0  0.26130  0.87900  0.59500  1.0000
  H   H29       1.0  0.16610  0.61500  0.11010  1.0000
  H   H30       1.0  0.83390  0.11500  0.38990  1.0000
  H   H31       1.0  0.83390  0.38500  0.88990  1.0000
  H   H32       1.0  0.16610  0.88500  0.61010  1.0000
  C   C81       1.0  0.16140  0.69690  0.04649  1.0000
  C   C82       1.0  0.83860  0.19690  0.45351  1.0000
  C   C83       1.0  0.83860  0.30310  0.95351  1.0000
  C   C84       1.0  0.16140  0.80310  0.54649  1.0000
  H   H33       1.0  0.17840  0.76260  0.06250  1.0000
  H   H34       1.0  0.82160  0.26260  0.43750  1.0000
  H   H35       1.0  0.82160  0.23740  0.93750  1.0000
  H   H36       1.0  0.17840  0.73740  0.56250  1.0000
  H   H37       1.0  0.18790  0.69190  0.01720  1.0000
  H   H38       1.0  0.81210  0.19190  0.48280  1.0000
  H   H39       1.0  0.81210  0.30810  0.98280  1.0000
  H   H40       1.0  0.18790  0.80810  0.51720  1.0000
  C   C85       1.0  0.97270  0.22850  0.99851  1.0000
  C   C86       1.0  0.02730  0.72850  0.50149  1.0000
  C   C87       1.0  0.02730  0.77150  0.00149  1.0000
  C   C88       1.0  0.97270  0.27150  0.49851  1.0000
  H   H41       1.0  0.94970  0.22670  0.02910  1.0000
  H   H42       1.0  0.05030  0.72670  0.47090  1.0000
  H   H43       1.0  0.05030  0.77330  0.97090  1.0000
  H   H44       1.0  0.94970  0.27330  0.52910  1.0000
  H   H45       1.0  0.95710  0.16440  0.98060  1.0000
  H   H46       1.0  0.04290  0.66440  0.51940  1.0000
  H   H47       1.0  0.04290  0.83560  0.01940  1.0000
  H   H48       1.0  0.95710  0.33560  0.48060  1.0000
