data_image0
_chemical_formula_structural       Co4Br4O16C16H4C4H4C12H4C4H4C4H4C4H4C4
_chemical_formula_sum              "Co4 Br4 O16 C48 H24"
_cell_length_a       10.3019
_cell_length_b       15.482
_cell_length_c       10.919
_cell_angle_alpha    90
_cell_angle_beta     92.482
_cell_angle_gamma    90

_space_group_name_H-M_alt    "P 1"
_space_group_IT_number       1

loop_
  _space_group_symop_operation_xyz
  'x, y, z'

loop_
  _atom_site_type_symbol
  _atom_site_label
  _atom_site_symmetry_multiplicity
  _atom_site_fract_x
  _atom_site_fract_y
  _atom_site_fract_z
  _atom_site_occupancy
  Co  Co1       1.0  0.89227  0.01761  0.40464  1.0000
  Co  Co2       1.0  0.60773  0.51761  0.09536  1.0000
  Co  Co3       1.0  0.10773  0.98239  0.59536  1.0000
  Co  Co4       1.0  0.39227  0.48239  0.90464  1.0000
  Br  Br1       1.0  0.71519  0.05257  0.25412  1.0000
  Br  Br2       1.0  0.78481  0.55257  0.24588  1.0000
  Br  Br3       1.0  0.28481  0.94743  0.74588  1.0000
  Br  Br4       1.0  0.21519  0.44743  0.75412  1.0000
  O   O1        1.0  0.53760  0.40428  0.84820  1.0000
  O   O2        1.0  0.96240  0.90428  0.65180  1.0000
  O   O3        1.0  0.46240  0.59572  0.15180  1.0000
  O   O4        1.0  0.03760  0.09572  0.34820  1.0000
  O   O5        1.0  0.69710  0.43090  0.98460  1.0000
  O   O6        1.0  0.80290  0.93090  0.51540  1.0000
  O   O7        1.0  0.30290  0.56910  0.01540  1.0000
  O   O8        1.0  0.19710  0.06910  0.48460  1.0000
  O   O9        1.0  0.86190  0.10861  0.53840  1.0000
  O   O10       1.0  0.63810  0.60861  0.96160  1.0000
  O   O11       1.0  0.13810  0.89139  0.46160  1.0000
  O   O12       1.0  0.36190  0.39139  0.03840  1.0000
  O   O13       1.0  0.01960  0.08507  0.67790  1.0000
  O   O14       1.0  0.48040  0.58507  0.82210  1.0000
  O   O15       1.0  0.98040  0.91493  0.32210  1.0000
  O   O16       1.0  0.51960  0.41493  0.17790  1.0000
  C   C1        1.0  0.64760  0.39067  0.89650  1.0000
  C   C2        1.0  0.85240  0.89067  0.60350  1.0000
  C   C3        1.0  0.35240  0.60933  0.10350  1.0000
  C   C4        1.0  0.14760  0.10933  0.39650  1.0000
  C   C5        1.0  0.91920  0.12216  0.63880  1.0000
  C   C6        1.0  0.58080  0.62216  0.86120  1.0000
  C   C7        1.0  0.08080  0.87784  0.36120  1.0000
  C   C8        1.0  0.41920  0.37784  0.13880  1.0000
  C   C9        1.0  0.72510  0.31956  0.84080  1.0000
  C   C10       1.0  0.77490  0.81956  0.65920  1.0000
  C   C11       1.0  0.27490  0.68044  0.15920  1.0000
  C   C12       1.0  0.22510  0.18044  0.34080  1.0000
  C   C13       1.0  0.83610  0.33790  0.78180  1.0000
  C   C14       1.0  0.66390  0.83790  0.71820  1.0000
  C   C15       1.0  0.16390  0.66210  0.21820  1.0000
  C   C16       1.0  0.33610  0.16210  0.28180  1.0000
  H   H1        1.0  0.86830  0.39410  0.78310  1.0000
  H   H2        1.0  0.63170  0.89410  0.71690  1.0000
  H   H3        1.0  0.13170  0.60590  0.21690  1.0000
  H   H4        1.0  0.36830  0.10590  0.28310  1.0000
  C   C17       1.0  0.90220  0.27340  0.71920  1.0000
  C   C18       1.0  0.59780  0.77340  0.78080  1.0000
  C   C19       1.0  0.09780  0.72660  0.28080  1.0000
  C   C20       1.0  0.40220  0.22660  0.21920  1.0000
  H   H5        1.0  0.97620  0.28780  0.67780  1.0000
  H   H6        1.0  0.52380  0.78780  0.82220  1.0000
  H   H7        1.0  0.02380  0.71220  0.32220  1.0000
  H   H8        1.0  0.47620  0.21220  0.17780  1.0000
  C   C21       1.0  0.85950  0.18985  0.71810  1.0000
  C   C22       1.0  0.64050  0.68985  0.78190  1.0000
  C   C23       1.0  0.14050  0.81015  0.28190  1.0000
  C   C24       1.0  0.35950  0.31015  0.21810  1.0000
  C   C25       1.0  0.75150  0.16690  0.78800  1.0000
  C   C26       1.0  0.74850  0.66690  0.71200  1.0000
  C   C27       1.0  0.24850  0.83310  0.21200  1.0000
  C   C28       1.0  0.25150  0.33310  0.28800  1.0000
  C   C29       1.0  0.71100  0.07990  0.80000  1.0000
  C   C30       1.0  0.78900  0.57990  0.70000  1.0000
  C   C31       1.0  0.28900  0.92010  0.20000  1.0000
  C   C32       1.0  0.21100  0.42010  0.30000  1.0000
  H   H9        1.0  0.75510  0.03640  0.76040  1.0000
  H   H10       1.0  0.74490  0.53640  0.73960  1.0000
  H   H11       1.0  0.24490  0.96360  0.23960  1.0000
  H   H12       1.0  0.25510  0.46360  0.26040  1.0000
  C   C33       1.0  0.60890  0.05940  0.86840  1.0000
  C   C34       1.0  0.89110  0.55940  0.63160  1.0000
  C   C35       1.0  0.39110  0.94060  0.13160  1.0000
  C   C36       1.0  0.10890  0.44060  0.36840  1.0000
  H   H13       1.0  0.58510  0.00180  0.87710  1.0000
  H   H14       1.0  0.91490  0.50180  0.62290  1.0000
  H   H15       1.0  0.41490  0.99820  0.12290  1.0000
  H   H16       1.0  0.08510  0.49820  0.37710  1.0000
  C   C37       1.0  0.53910  0.12380  0.92590  1.0000
  C   C38       1.0  0.96090  0.62380  0.57410  1.0000
  C   C39       1.0  0.46090  0.87620  0.07410  1.0000
  C   C40       1.0  0.03910  0.37620  0.42590  1.0000
  H   H17       1.0  0.46830  0.10900  0.97160  1.0000
  H   H18       1.0  0.03170  0.60900  0.52840  1.0000
  H   H19       1.0  0.53170  0.89100  0.02840  1.0000
  H   H20       1.0  0.96830  0.39100  0.47160  1.0000
  C   C41       1.0  0.57390  0.20860  0.91590  1.0000
  C   C42       1.0  0.92610  0.70860  0.58410  1.0000
  C   C43       1.0  0.42610  0.79140  0.08410  1.0000
  C   C44       1.0  0.07390  0.29140  0.41590  1.0000
  H   H21       1.0  0.52610  0.25100  0.95420  1.0000
  H   H22       1.0  0.97390  0.75100  0.54580  1.0000
  H   H23       1.0  0.47390  0.74900  0.04580  1.0000
  H   H24       1.0  0.02610  0.24900  0.45420  1.0000
  C   C45       1.0  0.68210  0.23252  0.84750  1.0000
  C   C46       1.0  0.81790  0.73252  0.65250  1.0000
  C   C47       1.0  0.31790  0.76748  0.15250  1.0000
  C   C48       1.0  0.18210  0.26748  0.34750  1.0000
