data_image0
_chemical_formula_structural       CuC2H2C2H2C2H2C2H2C8N4H2O10H4
_chemical_formula_sum              "Cu1 C16 H14 N4 O10"
_cell_length_a       9.995
_cell_length_b       10.643
_cell_length_c       11.111
_cell_angle_alpha    115.52
_cell_angle_beta     91.4
_cell_angle_gamma    111.69

_space_group_name_H-M_alt    "P 1"
_space_group_IT_number       1

loop_
  _space_group_symop_operation_xyz
  'x, y, z'

loop_
  _atom_site_type_symbol
  _atom_site_label
  _atom_site_symmetry_multiplicity
  _atom_site_fract_x
  _atom_site_fract_y
  _atom_site_fract_z
  _atom_site_occupancy
  Cu  Cu1       1.0  1.00000  0.50000  0.50000  1.0000
  C   C1        1.0  0.95320  0.40580  0.19440  1.0000
  C   C2        1.0  0.04680  0.59420  0.80560  1.0000
  H   H1        1.0  0.97480  0.50540  0.21080  1.0000
  H   H2        1.0  0.02520  0.49460  0.78920  1.0000
  C   C3        1.0  0.88470  0.16000  0.08700  1.0000
  C   C4        1.0  0.11530  0.84000  0.91300  1.0000
  H   H3        1.0  0.85100  0.05880  0.01870  1.0000
  H   H4        1.0  0.14900  0.94120  0.98130  1.0000
  C   C5        1.0  0.92550  0.21300  0.22230  1.0000
  C   C6        1.0  0.07450  0.78700  0.77770  1.0000
  H   H5        1.0  0.92430  0.15270  0.26330  1.0000
  H   H6        1.0  0.07570  0.84730  0.73670  1.0000
  C   C7        1.0  0.47450  0.93980  0.58860  1.0000
  C   C8        1.0  0.52550  0.06020  0.41140  1.0000
  H   H7        1.0  0.45760  0.89800  0.64800  1.0000
  H   H8        1.0  0.54240  0.10200  0.35200  1.0000
  C   C9        1.0  0.36150  0.88470  0.47950  1.0000
  C   C10       1.0  0.63850  0.11530  0.52050  1.0000
  C   C11       1.0  0.38820  0.94500  0.38800  1.0000
  C   C12       1.0  0.61180  0.05500  0.61200  1.0000
  C   C13       1.0  0.20940  0.76940  0.46550  1.0000
  C   C14       1.0  0.79060  0.23060  0.53450  1.0000
  C   C15       1.0  0.27200  0.88510  0.26200  1.0000
  C   C16       1.0  0.72800  0.11490  0.73800  1.0000
  N   N1        1.0  0.96920  0.36890  0.29090  1.0000
  N   N2        1.0  0.03080  0.63110  0.70910  1.0000
  N   N3        1.0  0.90230  0.28360  0.07000  1.0000
  N   N4        1.0  0.09770  0.71640  0.93000  1.0000
  H   H9        1.0  0.88420  0.28340  0.99390  1.0000
  H   H10       1.0  0.11580  0.71660  0.00610  1.0000
  O   O1        1.0  0.20070  0.67140  0.50540  1.0000
  O   O2        1.0  0.79930  0.32860  0.49460  1.0000
  O   O3        1.0  0.10260  0.78190  0.42000  1.0000
  O   O4        1.0  0.89740  0.21810  0.58000  1.0000
  O   O5        1.0  0.23080  0.74830  0.17240  1.0000
  O   O6        1.0  0.76920  0.25170  0.82760  1.0000
  O   O7        1.0  0.22870  0.97790  0.25340  1.0000
  O   O8        1.0  0.77130  0.02210  0.74660  1.0000
  O   O9        1.0  0.87170  0.59990  0.45970  1.0000
  O   O10       1.0  0.12830  0.40010  0.54030  1.0000
  H   H11       1.0  0.82100  0.63900  0.51100  1.0000
  H   H12       1.0  0.17900  0.36100  0.48900  1.0000
  H   H13       1.0  0.92900  0.66100  0.44600  1.0000
  H   H14       1.0  0.07100  0.33900  0.55400  1.0000
