data_image0
_chemical_formula_structural       CuBr4O8C8H2C6H2C2
_chemical_formula_sum              "Cu1 Br4 O8 C16 H4"
_cell_length_a       9.047
_cell_length_b       9.9015
_cell_length_c       10.986
_cell_angle_alpha    76.252
_cell_angle_beta     68.805
_cell_angle_gamma    69.874

_space_group_name_H-M_alt    "P 1"
_space_group_IT_number       1

loop_
  _space_group_symop_operation_xyz
  'x, y, z'

loop_
  _atom_site_type_symbol
  _atom_site_label
  _atom_site_symmetry_multiplicity
  _atom_site_fract_x
  _atom_site_fract_y
  _atom_site_fract_z
  _atom_site_occupancy
  Cu  Cu1       1.0  0.00000  0.00000  0.50000  1.0000
  Br  Br1       1.0  0.35762  0.31731  0.78385  1.0000
  Br  Br2       1.0  0.64238  0.68269  0.21615  1.0000
  Br  Br3       1.0  0.91896  0.33668  0.04214  1.0000
  Br  Br4       1.0  0.08104  0.66332  0.95786  1.0000
  O   O1        1.0  0.94955  0.99250  0.34434  1.0000
  O   O2        1.0  0.05045  0.00750  0.65566  1.0000
  O   O3        1.0  0.12760  0.11860  0.22832  1.0000
  O   O4        1.0  0.87240  0.88140  0.77168  1.0000
  O   O5        1.0  0.85585  0.19449  0.51238  1.0000
  O   O6        1.0  0.14415  0.80551  0.48762  1.0000
  O   O7        1.0  0.64130  0.10378  0.59175  1.0000
  O   O8        1.0  0.35870  0.89622  0.40825  1.0000
  C   C1        1.0  0.70310  0.20435  0.54941  1.0000
  C   C2        1.0  0.29690  0.79565  0.45059  1.0000
  C   C3        1.0  0.59590  0.35791  0.52950  1.0000
  C   C4        1.0  0.40410  0.64209  0.47050  1.0000
  C   C5        1.0  0.44350  0.41816  0.61731  1.0000
  C   C6        1.0  0.55650  0.58184  0.38269  1.0000
  C   C7        1.0  0.65030  0.44240  0.41253  1.0000
  C   C8        1.0  0.34970  0.55760  0.58747  1.0000
  H   H1        1.0  0.75220  0.40470  0.35250  1.0000
  H   H2        1.0  0.24780  0.59530  0.64750  1.0000
  C   C9        1.0  0.01010  0.02904  0.11551  1.0000
  C   C10       1.0  0.98990  0.97096  0.88449  1.0000
  C   C11       1.0  0.97170  0.14031  0.01826  1.0000
  C   C12       1.0  0.02830  0.85969  0.98174  1.0000
  C   C13       1.0  0.03680  0.88810  0.09619  1.0000
  C   C14       1.0  0.96320  0.11190  0.90381  1.0000
  H   H3        1.0  0.06070  0.81180  0.16080  1.0000
  H   H4        1.0  0.93930  0.18820  0.83920  1.0000
  C   C15       1.0  0.03180  0.05120  0.23902  1.0000
  C   C16       1.0  0.96820  0.94880  0.76098  1.0000
