data_image0
_chemical_formula_structural       Zn8Cl8O16N24C24H8C24H8C8H8
_chemical_formula_sum              "Zn8 Cl8 O16 N24 C56 H24"
_cell_length_a       16.2563
_cell_length_b       9.87
_cell_length_c       22.871
_cell_angle_alpha    90
_cell_angle_beta     90
_cell_angle_gamma    90

_space_group_name_H-M_alt    "P 1"
_space_group_IT_number       1

loop_
  _space_group_symop_operation_xyz
  'x, y, z'

loop_
  _atom_site_type_symbol
  _atom_site_label
  _atom_site_symmetry_multiplicity
  _atom_site_fract_x
  _atom_site_fract_y
  _atom_site_fract_z
  _atom_site_occupancy
  Zn  Zn1       1.0  0.15368  0.60359  0.38963  1.0000
  Zn  Zn2       1.0  0.34632  0.39641  0.88963  1.0000
  Zn  Zn3       1.0  0.84632  0.10359  0.11037  1.0000
  Zn  Zn4       1.0  0.65368  0.89641  0.61037  1.0000
  Zn  Zn5       1.0  0.84632  0.39641  0.61037  1.0000
  Zn  Zn6       1.0  0.65368  0.60359  0.11037  1.0000
  Zn  Zn7       1.0  0.15368  0.89641  0.88963  1.0000
  Zn  Zn8       1.0  0.34632  0.10359  0.38963  1.0000
  Cl  Cl1       1.0  0.13898  0.61620  0.29302  1.0000
  Cl  Cl2       1.0  0.36102  0.38380  0.79302  1.0000
  Cl  Cl3       1.0  0.86102  0.11620  0.20698  1.0000
  Cl  Cl4       1.0  0.63898  0.88380  0.70698  1.0000
  Cl  Cl5       1.0  0.86102  0.38380  0.70698  1.0000
  Cl  Cl6       1.0  0.63898  0.61620  0.20698  1.0000
  Cl  Cl7       1.0  0.13898  0.88380  0.79302  1.0000
  Cl  Cl8       1.0  0.36102  0.11620  0.29302  1.0000
  O   O1        1.0  0.05810  0.63460  0.43880  1.0000
  O   O2        1.0  0.44190  0.36540  0.93880  1.0000
  O   O3        1.0  0.94190  0.13460  0.06120  1.0000
  O   O4        1.0  0.55810  0.86540  0.56120  1.0000
  O   O5        1.0  0.94190  0.36540  0.56120  1.0000
  O   O6        1.0  0.55810  0.63460  0.06120  1.0000
  O   O7        1.0  0.05810  0.86540  0.93880  1.0000
  O   O8        1.0  0.44190  0.13460  0.43880  1.0000
  O   O9        1.0  0.04460  0.84670  0.40880  1.0000
  O   O10       1.0  0.45540  0.15330  0.90880  1.0000
  O   O11       1.0  0.95540  0.34670  0.09120  1.0000
  O   O12       1.0  0.54460  0.65330  0.59120  1.0000
  O   O13       1.0  0.95540  0.15330  0.59120  1.0000
  O   O14       1.0  0.54460  0.84670  0.09120  1.0000
  O   O15       1.0  0.04460  0.65330  0.90880  1.0000
  O   O16       1.0  0.45540  0.34670  0.40880  1.0000
  N   N1        1.0  0.81660  0.58690  0.58450  1.0000
  N   N2        1.0  0.68340  0.41310  0.08450  1.0000
  N   N3        1.0  0.18340  0.08690  0.91550  1.0000
  N   N4        1.0  0.31660  0.91310  0.41550  1.0000
  N   N5        1.0  0.18340  0.41310  0.41550  1.0000
  N   N6        1.0  0.31660  0.58690  0.91550  1.0000
  N   N7        1.0  0.81660  0.91310  0.08450  1.0000
  N   N8        1.0  0.68340  0.08690  0.58450  1.0000
  N   N9        1.0  0.75280  0.65520  0.60750  1.0000
  N   N10       1.0  0.74720  0.34480  0.10750  1.0000
  N   N11       1.0  0.24720  0.15520  0.89250  1.0000
  N   N12       1.0  0.25280  0.84480  0.39250  1.0000
  N   N13       1.0  0.24720  0.34480  0.39250  1.0000
  N   N14       1.0  0.25280  0.65520  0.89250  1.0000
  N   N15       1.0  0.75280  0.84480  0.10750  1.0000
  N   N16       1.0  0.74720  0.15520  0.60750  1.0000
  N   N17       1.0  0.74660  0.77120  0.58460  1.0000
  N   N18       1.0  0.75340  0.22880  0.08460  1.0000
  N   N19       1.0  0.25340  0.27120  0.91540  1.0000
  N   N20       1.0  0.24660  0.72880  0.41540  1.0000
  N   N21       1.0  0.25340  0.22880  0.41540  1.0000
  N   N22       1.0  0.24660  0.77120  0.91540  1.0000
  N   N23       1.0  0.74660  0.72880  0.08460  1.0000
  N   N24       1.0  0.75340  0.27120  0.58460  1.0000
  C   C1        1.0  0.02260  0.75400  0.43810  1.0000
  C   C2        1.0  0.47740  0.24600  0.93810  1.0000
  C   C3        1.0  0.97740  0.25400  0.06190  1.0000
  C   C4        1.0  0.52260  0.74600  0.56190  1.0000
  C   C5        1.0  0.97740  0.24600  0.56190  1.0000
  C   C6        1.0  0.52260  0.75400  0.06190  1.0000
  C   C7        1.0  0.02260  0.74600  0.93810  1.0000
  C   C8        1.0  0.47740  0.25400  0.43810  1.0000
  C   C9        1.0  0.94770  0.76360  0.47630  1.0000
  C   C10       1.0  0.55230  0.23640  0.97630  1.0000
  C   C11       1.0  0.05230  0.26360  0.02370  1.0000
  C   C12       1.0  0.44770  0.73640  0.52370  1.0000
  C   C13       1.0  0.05230  0.23640  0.52370  1.0000
  C   C14       1.0  0.44770  0.76360  0.02370  1.0000
  C   C15       1.0  0.94770  0.73640  0.97630  1.0000
  C   C16       1.0  0.55230  0.26360  0.47630  1.0000
  C   C17       1.0  0.92480  0.65720  0.51100  1.0000
  C   C18       1.0  0.57520  0.34280  0.01100  1.0000
  C   C19       1.0  0.07520  0.15720  0.98900  1.0000
  C   C20       1.0  0.42480  0.84280  0.48900  1.0000
  C   C21       1.0  0.07520  0.34280  0.48900  1.0000
  C   C22       1.0  0.42480  0.65720  0.98900  1.0000
  C   C23       1.0  0.92480  0.84280  0.01100  1.0000
  C   C24       1.0  0.57520  0.15720  0.51100  1.0000
  H   H1        1.0  0.95480  0.57700  0.51150  1.0000
  H   H2        1.0  0.54520  0.42300  0.01150  1.0000
  H   H3        1.0  0.04520  0.07700  0.98850  1.0000
  H   H4        1.0  0.45480  0.92300  0.48850  1.0000
  H   H5        1.0  0.04520  0.42300  0.48850  1.0000
  H   H6        1.0  0.45480  0.57700  0.98850  1.0000
  H   H7        1.0  0.95480  0.92300  0.01150  1.0000
  H   H8        1.0  0.54520  0.07700  0.51150  1.0000
  C   C25       1.0  0.85370  0.67360  0.54630  1.0000
  C   C26       1.0  0.64630  0.32640  0.04630  1.0000
  C   C27       1.0  0.14630  0.17360  0.95370  1.0000
  C   C28       1.0  0.35370  0.82640  0.45370  1.0000
  C   C29       1.0  0.14630  0.32640  0.45370  1.0000
  C   C30       1.0  0.35370  0.67360  0.95370  1.0000
  C   C31       1.0  0.85370  0.82640  0.04630  1.0000
  C   C32       1.0  0.64630  0.17360  0.54630  1.0000
  C   C33       1.0  0.81110  0.79450  0.54630  1.0000
  C   C34       1.0  0.68890  0.20550  0.04630  1.0000
  C   C35       1.0  0.18890  0.29450  0.95370  1.0000
  C   C36       1.0  0.31110  0.70550  0.45370  1.0000
  C   C37       1.0  0.18890  0.20550  0.45370  1.0000
  C   C38       1.0  0.31110  0.79450  0.95370  1.0000
  C   C39       1.0  0.81110  0.70550  0.04630  1.0000
  C   C40       1.0  0.68890  0.29450  0.54630  1.0000
  C   C41       1.0  0.83570  0.90470  0.51370  1.0000
  C   C42       1.0  0.66430  0.09530  0.01370  1.0000
  C   C43       1.0  0.16430  0.40470  0.98630  1.0000
  C   C44       1.0  0.33570  0.59530  0.48630  1.0000
  C   C45       1.0  0.16430  0.09530  0.48630  1.0000
  C   C46       1.0  0.33570  0.90470  0.98630  1.0000
  C   C47       1.0  0.83570  0.59530  0.01370  1.0000
  C   C48       1.0  0.66430  0.40470  0.51370  1.0000
  H   H9        1.0  0.80790  0.98700  0.51500  1.0000
  H   H10       1.0  0.69210  0.01300  0.01500  1.0000
  H   H11       1.0  0.19210  0.48700  0.98500  1.0000
  H   H12       1.0  0.30790  0.51300  0.48500  1.0000
  H   H13       1.0  0.19210  0.01300  0.48500  1.0000
  H   H14       1.0  0.30790  0.98700  0.98500  1.0000
  H   H15       1.0  0.80790  0.51300  0.01500  1.0000
  H   H16       1.0  0.69210  0.48700  0.51500  1.0000
  C   C49       1.0  0.90440  0.88530  0.47870  1.0000
  C   C50       1.0  0.59560  0.11470  0.97870  1.0000
  C   C51       1.0  0.09560  0.38530  0.02130  1.0000
  C   C52       1.0  0.40440  0.61470  0.52130  1.0000
  C   C53       1.0  0.09560  0.11470  0.52130  1.0000
  C   C54       1.0  0.40440  0.88530  0.02130  1.0000
  C   C55       1.0  0.90440  0.61470  0.97870  1.0000
  C   C56       1.0  0.59560  0.38530  0.47870  1.0000
  H   H17       1.0  0.92250  0.95710  0.45580  1.0000
  H   H18       1.0  0.57750  0.04290  0.95580  1.0000
  H   H19       1.0  0.07750  0.45710  0.04420  1.0000
  H   H20       1.0  0.42250  0.54290  0.54420  1.0000
  H   H21       1.0  0.07750  0.04290  0.54420  1.0000
  H   H22       1.0  0.42250  0.95710  0.04420  1.0000
  H   H23       1.0  0.92250  0.54290  0.95580  1.0000
  H   H24       1.0  0.57750  0.45710  0.45580  1.0000
