data_image0
_chemical_formula_structural       Cu4O24C2H2C2H2C2H2C2H2C2H2C2H2
_chemical_formula_sum              "Cu4 O24 C12 H12"
_cell_length_a       8.2864
_cell_length_b       8.4587
_cell_length_c       13.1755
_cell_angle_alpha    90.389
_cell_angle_beta     90.306
_cell_angle_gamma    115.53

_space_group_name_H-M_alt    "P 1"
_space_group_IT_number       1

loop_
  _space_group_symop_operation_xyz
  'x, y, z'

loop_
  _atom_site_type_symbol
  _atom_site_label
  _atom_site_symmetry_multiplicity
  _atom_site_fract_x
  _atom_site_fract_y
  _atom_site_fract_z
  _atom_site_occupancy
  Cu  Cu1       1.0  0.00000  0.00000  0.00000  1.0000
  Cu  Cu2       1.0  0.68339  0.33474  0.24981  1.0000
  Cu  Cu3       1.0  0.31661  0.66526  0.75019  1.0000
  Cu  Cu4       1.0  0.00000  0.00000  0.50000  1.0000
  O   O1        1.0  0.20900  0.99430  0.06640  1.0000
  O   O2        1.0  0.79100  0.00570  0.93360  1.0000
  O   O3        1.0  0.47010  0.12430  0.14600  1.0000
  O   O4        1.0  0.52990  0.87570  0.85400  1.0000
  O   O5        1.0  0.90910  0.54560  0.36100  1.0000
  O   O6        1.0  0.09090  0.45440  0.63900  1.0000
  O   O7        1.0  0.03290  0.81350  0.42530  1.0000
  O   O8        1.0  0.96710  0.18650  0.57470  1.0000
  O   O9        1.0  0.68030  0.14170  0.33430  1.0000
  O   O10       1.0  0.31970  0.85830  0.66570  1.0000
  O   O11       1.0  0.81250  0.99480  0.40790  1.0000
  O   O12       1.0  0.18750  0.00520  0.59210  1.0000
  O   O13       1.0  0.50730  0.36100  0.34110  1.0000
  O   O14       1.0  0.49270  0.63900  0.65890  1.0000
  O   O15       1.0  0.23770  0.24600  0.41310  1.0000
  O   O16       1.0  0.76230  0.75400  0.58690  1.0000
  O   O17       1.0  0.66360  0.51290  0.15990  1.0000
  O   O18       1.0  0.33640  0.48710  0.84010  1.0000
  O   O19       1.0  0.77720  0.78480  0.10180  1.0000
  O   O20       1.0  0.22280  0.21520  0.89820  1.0000
  O   O21       1.0  0.88330  0.33950  0.16810  1.0000
  O   O22       1.0  0.11670  0.66050  0.83190  1.0000
  O   O23       1.0  0.01890  0.20530  0.08180  1.0000
  O   O24       1.0  0.98110  0.79470  0.91820  1.0000
  C   C1        1.0  0.31460  0.10060  0.12360  1.0000
  C   C2        1.0  0.68540  0.89940  0.87640  1.0000
  H   H1        1.0  0.27410  0.17710  0.15630  1.0000
  H   H2        1.0  0.72590  0.82290  0.84370  1.0000
  C   C3        1.0  0.90500  0.68760  0.38050  1.0000
  C   C4        1.0  0.09500  0.31240  0.61950  1.0000
  H   H3        1.0  0.80200  0.70280  0.36110  1.0000
  H   H4        1.0  0.19800  0.29720  0.63890  1.0000
  C   C5        1.0  0.81500  0.13110  0.36820  1.0000
  C   C6        1.0  0.18500  0.86890  0.63180  1.0000
  H   H5        1.0  0.92650  0.23140  0.36410  1.0000
  H   H6        1.0  0.07350  0.76860  0.63590  1.0000
  C   C7        1.0  0.36570  0.23450  0.36870  1.0000
  C   C8        1.0  0.63430  0.76550  0.63130  1.0000
  H   H7        1.0  0.35480  0.12000  0.35450  1.0000
  H   H8        1.0  0.64520  0.88000  0.64550  1.0000
  C   C9        1.0  0.79410  0.66150  0.14210  1.0000
  C   C10       1.0  0.20590  0.33850  0.85790  1.0000
  H   H9        1.0  0.91100  0.67780  0.16120  1.0000
  H   H10       1.0  0.08900  0.32220  0.83880  1.0000
  C   C11       1.0  0.88560  0.20470  0.12780  1.0000
  C   C12       1.0  0.11440  0.79530  0.87220  1.0000
  H   H11       1.0  0.78120  0.09710  0.13230  1.0000
  H   H12       1.0  0.21880  0.90290  0.86770  1.0000
