data_image0
_chemical_formula_structural       Cu4O24C2H2C2H2C2H2C2H2C2H2C2H2
_chemical_formula_sum              "Cu4 O24 C12 H12"
_cell_length_a       8.2998
_cell_length_b       8.4671
_cell_length_c       13.2253
_cell_angle_alpha    90.36
_cell_angle_beta     90.302
_cell_angle_gamma    115.459

_space_group_name_H-M_alt    "P 1"
_space_group_IT_number       1

loop_
  _space_group_symop_operation_xyz
  'x, y, z'

loop_
  _atom_site_type_symbol
  _atom_site_label
  _atom_site_symmetry_multiplicity
  _atom_site_fract_x
  _atom_site_fract_y
  _atom_site_fract_z
  _atom_site_occupancy
  Cu  Cu1       1.0  0.00000  0.00000  0.00000  1.0000
  Cu  Cu2       1.0  0.68320  0.33385  0.24957  1.0000
  Cu  Cu3       1.0  0.31680  0.66615  0.75043  1.0000
  Cu  Cu4       1.0  1.00000  1.00000  0.50000  1.0000
  O   O1        1.0  0.20930  0.99450  0.06560  1.0000
  O   O2        1.0  0.79070  0.00550  0.93440  1.0000
  O   O3        1.0  0.46910  0.12400  0.14490  1.0000
  O   O4        1.0  0.53090  0.87600  0.85510  1.0000
  O   O5        1.0  0.90950  0.54660  0.36070  1.0000
  O   O6        1.0  0.09050  0.45340  0.63930  1.0000
  O   O7        1.0  0.03180  0.81320  0.42590  1.0000
  O   O8        1.0  0.96820  0.18680  0.57410  1.0000
  O   O9        1.0  0.67980  0.14020  0.33360  1.0000
  O   O10       1.0  0.32020  0.85980  0.66640  1.0000
  O   O11       1.0  0.81240  0.99520  0.40850  1.0000
  O   O12       1.0  0.18760  0.00480  0.59150  1.0000
  O   O13       1.0  0.50680  0.35970  0.34120  1.0000
  O   O14       1.0  0.49320  0.64030  0.65880  1.0000
  O   O15       1.0  0.23950  0.24690  0.41170  1.0000
  O   O16       1.0  0.76050  0.75310  0.58830  1.0000
  O   O17       1.0  0.66440  0.51260  0.16100  1.0000
  O   O18       1.0  0.33560  0.48740  0.83900  1.0000
  O   O19       1.0  0.77750  0.78340  0.10150  1.0000
  O   O20       1.0  0.22250  0.21660  0.89850  1.0000
  O   O21       1.0  0.88170  0.33690  0.16810  1.0000
  O   O22       1.0  0.11830  0.66310  0.83190  1.0000
  O   O23       1.0  0.01840  0.20440  0.08230  1.0000
  O   O24       1.0  0.98160  0.79560  0.91770  1.0000
  C   C1        1.0  0.31750  0.10300  0.12290  1.0000
  C   C2        1.0  0.68250  0.89700  0.87710  1.0000
  H   H1        1.0  0.27870  0.18140  0.15460  1.0000
  H   H2        1.0  0.72130  0.81860  0.84540  1.0000
  C   C3        1.0  0.90660  0.68980  0.38070  1.0000
  C   C4        1.0  0.09340  0.31020  0.61930  1.0000
  H   H3        1.0  0.80480  0.70620  0.36080  1.0000
  H   H4        1.0  0.19520  0.29380  0.63920  1.0000
  C   C5        1.0  0.81560  0.13120  0.36800  1.0000
  C   C6        1.0  0.18440  0.86880  0.63200  1.0000
  H   H5        1.0  0.92680  0.23130  0.36360  1.0000
  H   H6        1.0  0.07320  0.76870  0.63640  1.0000
  C   C7        1.0  0.36490  0.23390  0.36790  1.0000
  C   C8        1.0  0.63510  0.76610  0.63210  1.0000
  H   H7        1.0  0.35280  0.11930  0.35340  1.0000
  H   H8        1.0  0.64720  0.88070  0.64660  1.0000
  C   C9        1.0  0.79290  0.65990  0.14260  1.0000
  C   C10       1.0  0.20710  0.34010  0.85740  1.0000
  H   H9        1.0  0.90950  0.67630  0.16190  1.0000
  H   H10       1.0  0.09050  0.32370  0.83810  1.0000
  C   C11       1.0  0.88500  0.20390  0.12720  1.0000
  C   C12       1.0  0.11500  0.79610  0.87280  1.0000
  H   H11       1.0  0.78050  0.09660  0.13040  1.0000
  H   H12       1.0  0.21950  0.90340  0.86960  1.0000
