data_image0
_chemical_formula_structural       Ni4O24C12H12
_chemical_formula_sum              "Ni4 O24 C12 H12"
_cell_length_a       8.4317
_cell_length_b       8.4317
_cell_length_c       13.292
_cell_angle_alpha    90
_cell_angle_beta     90
_cell_angle_gamma    120

_space_group_name_H-M_alt    "P 1"
_space_group_IT_number       1

loop_
  _space_group_symop_operation_xyz
  'x, y, z'

loop_
  _atom_site_type_symbol
  _atom_site_label
  _atom_site_symmetry_multiplicity
  _atom_site_fract_x
  _atom_site_fract_y
  _atom_site_fract_z
  _atom_site_occupancy
  Ni  Ni1       1.0  0.00000  0.00000  0.50000  1.0000
  Ni  Ni2       1.0  0.00000  0.00000  0.00000  1.0000
  Ni  Ni3       1.0  0.33330  0.66670  0.25000  1.0000
  Ni  Ni4       1.0  0.66670  0.33330  0.75000  1.0000
  O   O1        1.0  0.21050  0.20330  0.41772  1.0000
  O   O2        1.0  0.79670  0.00720  0.41772  1.0000
  O   O3        1.0  0.99280  0.78950  0.41772  1.0000
  O   O4        1.0  0.79670  0.78950  0.08228  1.0000
  O   O5        1.0  0.99280  0.20330  0.08228  1.0000
  O   O6        1.0  0.21050  0.00720  0.08228  1.0000
  O   O7        1.0  0.78950  0.79670  0.58228  1.0000
  O   O8        1.0  0.20330  0.99280  0.58228  1.0000
  O   O9        1.0  0.00720  0.21050  0.58228  1.0000
  O   O10       1.0  0.20330  0.21050  0.91772  1.0000
  O   O11       1.0  0.00720  0.79670  0.91772  1.0000
  O   O12       1.0  0.78950  0.99280  0.91772  1.0000
  O   O13       1.0  0.33930  0.47230  0.34154  1.0000
  O   O14       1.0  0.52770  0.86700  0.34154  1.0000
  O   O15       1.0  0.13300  0.66070  0.34154  1.0000
  O   O16       1.0  0.52770  0.66070  0.15846  1.0000
  O   O17       1.0  0.13300  0.47230  0.15846  1.0000
  O   O18       1.0  0.33930  0.86700  0.15846  1.0000
  O   O19       1.0  0.66070  0.52770  0.65846  1.0000
  O   O20       1.0  0.47230  0.13300  0.65846  1.0000
  O   O21       1.0  0.86700  0.33930  0.65846  1.0000
  O   O22       1.0  0.47230  0.33930  0.84154  1.0000
  O   O23       1.0  0.86700  0.52770  0.84154  1.0000
  O   O24       1.0  0.66070  0.13300  0.84154  1.0000
  C   C1        1.0  0.20530  0.32690  0.37020  1.0000
  C   C2        1.0  0.67310  0.87840  0.37020  1.0000
  C   C3        1.0  0.12160  0.79470  0.37020  1.0000
  C   C4        1.0  0.67310  0.79470  0.12980  1.0000
  C   C5        1.0  0.12160  0.32690  0.12980  1.0000
  C   C6        1.0  0.20530  0.87840  0.12980  1.0000
  C   C7        1.0  0.79470  0.67310  0.62980  1.0000
  C   C8        1.0  0.32690  0.12160  0.62980  1.0000
  C   C9        1.0  0.87840  0.20530  0.62980  1.0000
  C   C10       1.0  0.32690  0.20530  0.87020  1.0000
  C   C11       1.0  0.87840  0.67310  0.87020  1.0000
  C   C12       1.0  0.79470  0.12160  0.87020  1.0000
  H   H1        1.0  0.09000  0.30910  0.35450  1.0000
  H   H2        1.0  0.69090  0.78090  0.35450  1.0000
  H   H3        1.0  0.21910  0.91000  0.35450  1.0000
  H   H4        1.0  0.69090  0.91000  0.14550  1.0000
  H   H5        1.0  0.21910  0.30910  0.14550  1.0000
  H   H6        1.0  0.09000  0.78090  0.14550  1.0000
  H   H7        1.0  0.91000  0.69090  0.64550  1.0000
  H   H8        1.0  0.30910  0.21910  0.64550  1.0000
  H   H9        1.0  0.78090  0.09000  0.64550  1.0000
  H   H10       1.0  0.30910  0.09000  0.85450  1.0000
  H   H11       1.0  0.78090  0.69090  0.85450  1.0000
  H   H12       1.0  0.91000  0.21910  0.85450  1.0000
