data_image0
_chemical_formula_structural       Mg8O48C4H4C4H4C4H4C4H4C4H4C4H4
_chemical_formula_sum              "Mg8 O48 C24 H24"
_cell_length_a       8.427
_cell_length_b       14.912
_cell_length_c       13.584
_cell_angle_alpha    90
_cell_angle_beta     90.16
_cell_angle_gamma    90

_space_group_name_H-M_alt    "P 1"
_space_group_IT_number       1

loop_
  _space_group_symop_operation_xyz
  'x, y, z'

loop_
  _atom_site_type_symbol
  _atom_site_label
  _atom_site_symmetry_multiplicity
  _atom_site_fract_x
  _atom_site_fract_y
  _atom_site_fract_z
  _atom_site_occupancy
  Mg  Mg1       1.0  0.11776  0.33616  0.31951  1.0000
  Mg  Mg2       1.0  0.11776  0.66384  0.81951  1.0000
  Mg  Mg3       1.0  0.61776  0.83616  0.31951  1.0000
  Mg  Mg4       1.0  0.61776  0.16384  0.81951  1.0000
  Mg  Mg5       1.0  0.11652  0.99798  0.56754  1.0000
  Mg  Mg6       1.0  0.11652  0.00202  0.06754  1.0000
  Mg  Mg7       1.0  0.61652  0.49798  0.56754  1.0000
  Mg  Mg8       1.0  0.61652  0.50202  0.06754  1.0000
  O   O1        1.0  0.03020  0.23846  0.41676  1.0000
  O   O2        1.0  0.03020  0.76154  0.91676  1.0000
  O   O3        1.0  0.53020  0.73846  0.41676  1.0000
  O   O4        1.0  0.53020  0.26154  0.91676  1.0000
  O   O5        1.0  0.01813  0.10567  0.48818  1.0000
  O   O6        1.0  0.01813  0.89433  0.98818  1.0000
  O   O7        1.0  0.51813  0.60567  0.48818  1.0000
  O   O8        1.0  0.51813  0.39433  0.98818  1.0000
  O   O9        1.0  0.20602  0.23813  0.22467  1.0000
  O   O10       1.0  0.20602  0.76187  0.72467  1.0000
  O   O11       1.0  0.70602  0.73813  0.22467  1.0000
  O   O12       1.0  0.70602  0.26187  0.72467  1.0000
  O   O13       1.0  0.21146  0.10781  0.14753  1.0000
  O   O14       1.0  0.21146  0.89219  0.64753  1.0000
  O   O15       1.0  0.71146  0.60781  0.14753  1.0000
  O   O16       1.0  0.71146  0.39219  0.64753  1.0000
  O   O17       1.0  0.33258  0.33530  0.38969  1.0000
  O   O18       1.0  0.33258  0.66470  0.88969  1.0000
  O   O19       1.0  0.83258  0.83530  0.38969  1.0000
  O   O20       1.0  0.83258  0.16470  0.88969  1.0000
  O   O21       1.0  0.52376  0.40738  0.46907  1.0000
  O   O22       1.0  0.52376  0.59262  0.96907  1.0000
  O   O23       1.0  0.02376  0.90738  0.46907  1.0000
  O   O24       1.0  0.02376  0.09262  0.96907  1.0000
  O   O25       1.0  0.21083  0.43064  0.21967  1.0000
  O   O26       1.0  0.21083  0.56936  0.71967  1.0000
  O   O27       1.0  0.71083  0.93064  0.21967  1.0000
  O   O28       1.0  0.71083  0.06936  0.71967  1.0000
  O   O29       1.0  0.40231  0.50173  0.14159  1.0000
  O   O30       1.0  0.40231  0.49827  0.64159  1.0000
  O   O31       1.0  0.90231  0.00173  0.14159  1.0000
  O   O32       1.0  0.90231  0.99827  0.64159  1.0000
  O   O33       1.0  0.90619  0.33733  0.23972  1.0000
  O   O34       1.0  0.90619  0.66267  0.73972  1.0000
  O   O35       1.0  0.40619  0.83733  0.23972  1.0000
  O   O36       1.0  0.40619  0.16267  0.73972  1.0000
  O   O37       1.0  0.70573  0.40169  0.16110  1.0000
  O   O38       1.0  0.70573  0.59831  0.66110  1.0000
  O   O39       1.0  0.20573  0.90169  0.16110  1.0000
  O   O40       1.0  0.20573  0.09831  0.66110  1.0000
  O   O41       1.0  0.02929  0.43563  0.41420  1.0000
  O   O42       1.0  0.02929  0.56437  0.91420  1.0000
  O   O43       1.0  0.52929  0.93563  0.41420  1.0000
  O   O44       1.0  0.52929  0.06437  0.91420  1.0000
  O   O45       1.0  0.83190  0.50215  0.49323  1.0000
  O   O46       1.0  0.83190  0.49785  0.99323  1.0000
  O   O47       1.0  0.33190  0.00215  0.49323  1.0000
  O   O48       1.0  0.33190  0.99785  0.99323  1.0000
  C   C1        1.0  0.08180  0.16218  0.43456  1.0000
  C   C2        1.0  0.08180  0.83782  0.93456  1.0000
  C   C3        1.0  0.58180  0.66218  0.43456  1.0000
  C   C4        1.0  0.58180  0.33782  0.93456  1.0000
  H   H1        1.0  0.17700  0.14600  0.40490  1.0000
  H   H2        1.0  0.17700  0.85400  0.90490  1.0000
  H   H3        1.0  0.67700  0.64600  0.40490  1.0000
  H   H4        1.0  0.67700  0.35400  0.90490  1.0000
  C   C5        1.0  0.14190  0.16853  0.19213  1.0000
  C   C6        1.0  0.14190  0.83147  0.69213  1.0000
  C   C7        1.0  0.64190  0.66853  0.19213  1.0000
  C   C8        1.0  0.64190  0.33147  0.69213  1.0000
  H   H5        1.0  0.03340  0.16190  0.20220  1.0000
  H   H6        1.0  0.03340  0.83810  0.70220  1.0000
  H   H7        1.0  0.53340  0.66190  0.20220  1.0000
  H   H8        1.0  0.53340  0.33810  0.70220  1.0000
  C   C9        1.0  0.38920  0.38197  0.45510  1.0000
  C   C10       1.0  0.38920  0.61803  0.95510  1.0000
  C   C11       1.0  0.88920  0.88197  0.45510  1.0000
  C   C12       1.0  0.88920  0.11803  0.95510  1.0000
  H   H9        1.0  0.31650  0.40110  0.50200  1.0000
  H   H10       1.0  0.31650  0.59890  0.00200  1.0000
  H   H11       1.0  0.81650  0.90110  0.50200  1.0000
  H   H12       1.0  0.81650  0.09890  0.00200  1.0000
  C   C13       1.0  0.34630  0.46278  0.21365  1.0000
  C   C14       1.0  0.34630  0.53722  0.71365  1.0000
  C   C15       1.0  0.84630  0.96278  0.21365  1.0000
  C   C16       1.0  0.84630  0.03722  0.71365  1.0000
  H   H13       1.0  0.41170  0.45690  0.26860  1.0000
  H   H14       1.0  0.41170  0.54310  0.76860  1.0000
  H   H15       1.0  0.91170  0.95690  0.26860  1.0000
  H   H16       1.0  0.91170  0.04310  0.76860  1.0000
  C   C17       1.0  0.83830  0.40213  0.20233  1.0000
  C   C18       1.0  0.83830  0.59787  0.70233  1.0000
  C   C19       1.0  0.33830  0.90213  0.20233  1.0000
  C   C20       1.0  0.33830  0.09787  0.70233  1.0000
  H   H17       1.0  0.89120  0.45680  0.20510  1.0000
  H   H18       1.0  0.89120  0.54320  0.70510  1.0000
  H   H19       1.0  0.39120  0.95680  0.20510  1.0000
  H   H20       1.0  0.39120  0.04320  0.70510  1.0000
  C   C21       1.0  0.88907  0.43937  0.44549  1.0000
  C   C22       1.0  0.88907  0.56063  0.94549  1.0000
  C   C23       1.0  0.38907  0.93937  0.44549  1.0000
  C   C24       1.0  0.38907  0.06063  0.94549  1.0000
  H   H21       1.0  0.82300  0.39100  0.43160  1.0000
  H   H22       1.0  0.82300  0.60900  0.93160  1.0000
  H   H23       1.0  0.32300  0.89100  0.43160  1.0000
  H   H24       1.0  0.32300  0.10900  0.93160  1.0000
