data_image0
_chemical_formula_structural       Mg8O48C4H4C4H4C4H4C4H4C4H4C4H4
_chemical_formula_sum              "Mg8 O48 C24 H24"
_cell_length_a       8.421
_cell_length_b       14.9144
_cell_length_c       13.5689
_cell_angle_alpha    90
_cell_angle_beta     90.148
_cell_angle_gamma    90

_space_group_name_H-M_alt    "P 1"
_space_group_IT_number       1

loop_
  _space_group_symop_operation_xyz
  'x, y, z'

loop_
  _atom_site_type_symbol
  _atom_site_label
  _atom_site_symmetry_multiplicity
  _atom_site_fract_x
  _atom_site_fract_y
  _atom_site_fract_z
  _atom_site_occupancy
  Mg  Mg1       1.0  0.11778  0.33630  0.31949  1.0000
  Mg  Mg2       1.0  0.11778  0.66370  0.81949  1.0000
  Mg  Mg3       1.0  0.61778  0.83630  0.31949  1.0000
  Mg  Mg4       1.0  0.61778  0.16370  0.81949  1.0000
  Mg  Mg5       1.0  0.11662  0.99808  0.56751  1.0000
  Mg  Mg6       1.0  0.11662  0.00192  0.06751  1.0000
  Mg  Mg7       1.0  0.61662  0.49808  0.56751  1.0000
  Mg  Mg8       1.0  0.61662  0.50192  0.06751  1.0000
  O   O1        1.0  0.03045  0.23904  0.41772  1.0000
  O   O2        1.0  0.03045  0.76096  0.91772  1.0000
  O   O3        1.0  0.53045  0.73904  0.41772  1.0000
  O   O4        1.0  0.53045  0.26096  0.91772  1.0000
  O   O5        1.0  0.01765  0.10552  0.48810  1.0000
  O   O6        1.0  0.01765  0.89448  0.98810  1.0000
  O   O7        1.0  0.51765  0.60552  0.48810  1.0000
  O   O8        1.0  0.51765  0.39448  0.98810  1.0000
  O   O9        1.0  0.20562  0.23817  0.22467  1.0000
  O   O10       1.0  0.20562  0.76183  0.72467  1.0000
  O   O11       1.0  0.70562  0.73817  0.22467  1.0000
  O   O12       1.0  0.70562  0.26183  0.72467  1.0000
  O   O13       1.0  0.21175  0.10734  0.14793  1.0000
  O   O14       1.0  0.21175  0.89266  0.64793  1.0000
  O   O15       1.0  0.71175  0.60734  0.14793  1.0000
  O   O16       1.0  0.71175  0.39266  0.64793  1.0000
  O   O17       1.0  0.33358  0.33528  0.38862  1.0000
  O   O18       1.0  0.33358  0.66472  0.88862  1.0000
  O   O19       1.0  0.83358  0.83528  0.38862  1.0000
  O   O20       1.0  0.83358  0.16472  0.88862  1.0000
  O   O21       1.0  0.52509  0.40714  0.46874  1.0000
  O   O22       1.0  0.52509  0.59286  0.96874  1.0000
  O   O23       1.0  0.02509  0.90714  0.46874  1.0000
  O   O24       1.0  0.02509  0.09286  0.96874  1.0000
  O   O25       1.0  0.21014  0.43049  0.21913  1.0000
  O   O26       1.0  0.21014  0.56951  0.71913  1.0000
  O   O27       1.0  0.71014  0.93049  0.21913  1.0000
  O   O28       1.0  0.71014  0.06951  0.71913  1.0000
  O   O29       1.0  0.40197  0.50216  0.14123  1.0000
  O   O30       1.0  0.40197  0.49784  0.64123  1.0000
  O   O31       1.0  0.90197  0.00216  0.14123  1.0000
  O   O32       1.0  0.90197  0.99784  0.64123  1.0000
  O   O33       1.0  0.90549  0.33676  0.24024  1.0000
  O   O34       1.0  0.90549  0.66324  0.74024  1.0000
  O   O35       1.0  0.40549  0.83676  0.24024  1.0000
  O   O36       1.0  0.40549  0.16324  0.74024  1.0000
  O   O37       1.0  0.70463  0.40134  0.16147  1.0000
  O   O38       1.0  0.70463  0.59866  0.66147  1.0000
  O   O39       1.0  0.20463  0.90134  0.16147  1.0000
  O   O40       1.0  0.20463  0.09866  0.66147  1.0000
  O   O41       1.0  0.03027  0.43629  0.41421  1.0000
  O   O42       1.0  0.03027  0.56371  0.91421  1.0000
  O   O43       1.0  0.53027  0.93629  0.41421  1.0000
  O   O44       1.0  0.53027  0.06371  0.91421  1.0000
  O   O45       1.0  0.83253  0.50306  0.49330  1.0000
  O   O46       1.0  0.83253  0.49694  0.99330  1.0000
  O   O47       1.0  0.33253  0.00306  0.49330  1.0000
  O   O48       1.0  0.33253  0.99694  0.99330  1.0000
  C   C1        1.0  0.08247  0.16239  0.43447  1.0000
  C   C2        1.0  0.08247  0.83761  0.93447  1.0000
  C   C3        1.0  0.58247  0.66239  0.43447  1.0000
  C   C4        1.0  0.58247  0.33761  0.93447  1.0000
  H   H1        1.0  0.17750  0.14630  0.40450  1.0000
  H   H2        1.0  0.17750  0.85370  0.90450  1.0000
  H   H3        1.0  0.67750  0.64630  0.40450  1.0000
  H   H4        1.0  0.67750  0.35370  0.90450  1.0000
  C   C5        1.0  0.14140  0.16810  0.19218  1.0000
  C   C6        1.0  0.14140  0.83190  0.69218  1.0000
  C   C7        1.0  0.64140  0.66810  0.19218  1.0000
  C   C8        1.0  0.64140  0.33190  0.69218  1.0000
  H   H5        1.0  0.03280  0.16130  0.20210  1.0000
  H   H6        1.0  0.03280  0.83870  0.70210  1.0000
  H   H7        1.0  0.53280  0.66130  0.20210  1.0000
  H   H8        1.0  0.53280  0.33870  0.70210  1.0000
  C   C9        1.0  0.38870  0.38205  0.45528  1.0000
  C   C10       1.0  0.38870  0.61795  0.95528  1.0000
  C   C11       1.0  0.88870  0.88205  0.45528  1.0000
  C   C12       1.0  0.88870  0.11795  0.95528  1.0000
  H   H9        1.0  0.31570  0.40100  0.50220  1.0000
  H   H10       1.0  0.31570  0.59900  0.00220  1.0000
  H   H11       1.0  0.81570  0.90100  0.50220  1.0000
  H   H12       1.0  0.81570  0.09900  0.00220  1.0000
  C   C13       1.0  0.34612  0.46284  0.21366  1.0000
  C   C14       1.0  0.34612  0.53716  0.71366  1.0000
  C   C15       1.0  0.84612  0.96284  0.21366  1.0000
  C   C16       1.0  0.84612  0.03716  0.71366  1.0000
  H   H13       1.0  0.41140  0.45700  0.26870  1.0000
  H   H14       1.0  0.41140  0.54300  0.76870  1.0000
  H   H15       1.0  0.91140  0.95700  0.26870  1.0000
  H   H16       1.0  0.91140  0.04300  0.76870  1.0000
  C   C17       1.0  0.83747  0.40186  0.20264  1.0000
  C   C18       1.0  0.83747  0.59814  0.70264  1.0000
  C   C19       1.0  0.33747  0.90186  0.20264  1.0000
  C   C20       1.0  0.33747  0.09814  0.70264  1.0000
  H   H17       1.0  0.89040  0.45650  0.20530  1.0000
  H   H18       1.0  0.89040  0.54350  0.70530  1.0000
  H   H19       1.0  0.39040  0.95650  0.20530  1.0000
  H   H20       1.0  0.39040  0.04350  0.70530  1.0000
  C   C21       1.0  0.88968  0.43984  0.44536  1.0000
  C   C22       1.0  0.88968  0.56016  0.94536  1.0000
  C   C23       1.0  0.38968  0.93984  0.44536  1.0000
  C   C24       1.0  0.38968  0.06016  0.94536  1.0000
  H   H21       1.0  0.82360  0.39150  0.43140  1.0000
  H   H22       1.0  0.82360  0.60850  0.93140  1.0000
  H   H23       1.0  0.32360  0.89150  0.43140  1.0000
  H   H24       1.0  0.32360  0.10850  0.93140  1.0000
