data_image0
_chemical_formula_structural       Mg8O48C4H4C4H4C4H4C4H4C4H4C4H4
_chemical_formula_sum              "Mg8 O48 C24 H24"
_cell_length_a       8.41
_cell_length_b       14.8909
_cell_length_c       13.537
_cell_angle_alpha    90
_cell_angle_beta     90.038
_cell_angle_gamma    90

_space_group_name_H-M_alt    "P 1"
_space_group_IT_number       1

loop_
  _space_group_symop_operation_xyz
  'x, y, z'

loop_
  _atom_site_type_symbol
  _atom_site_label
  _atom_site_symmetry_multiplicity
  _atom_site_fract_x
  _atom_site_fract_y
  _atom_site_fract_z
  _atom_site_occupancy
  Mg  Mg1       1.0  0.11767  0.33652  0.31958  1.0000
  Mg  Mg2       1.0  0.11767  0.66348  0.81958  1.0000
  Mg  Mg3       1.0  0.61767  0.83652  0.31958  1.0000
  Mg  Mg4       1.0  0.61767  0.16348  0.81958  1.0000
  Mg  Mg5       1.0  0.11682  0.99830  0.56745  1.0000
  Mg  Mg6       1.0  0.11682  0.00170  0.06745  1.0000
  Mg  Mg7       1.0  0.61682  0.49830  0.56745  1.0000
  Mg  Mg8       1.0  0.61682  0.50170  0.06745  1.0000
  O   O1        1.0  0.03104  0.24029  0.41932  1.0000
  O   O2        1.0  0.03104  0.75971  0.91932  1.0000
  O   O3        1.0  0.53104  0.74029  0.41932  1.0000
  O   O4        1.0  0.53104  0.25971  0.91932  1.0000
  O   O5        1.0  0.01732  0.10532  0.48802  1.0000
  O   O6        1.0  0.01732  0.89468  0.98802  1.0000
  O   O7        1.0  0.51732  0.60532  0.48802  1.0000
  O   O8        1.0  0.51732  0.39468  0.98802  1.0000
  O   O9        1.0  0.20492  0.23815  0.22490  1.0000
  O   O10       1.0  0.20492  0.76185  0.72490  1.0000
  O   O11       1.0  0.70492  0.73815  0.22490  1.0000
  O   O12       1.0  0.70492  0.26185  0.72490  1.0000
  O   O13       1.0  0.21250  0.10674  0.14800  1.0000
  O   O14       1.0  0.21250  0.89326  0.64800  1.0000
  O   O15       1.0  0.71250  0.60674  0.14800  1.0000
  O   O16       1.0  0.71250  0.39326  0.64800  1.0000
  O   O17       1.0  0.33546  0.33502  0.38663  1.0000
  O   O18       1.0  0.33546  0.66498  0.88663  1.0000
  O   O19       1.0  0.83546  0.83502  0.38663  1.0000
  O   O20       1.0  0.83546  0.16498  0.88663  1.0000
  O   O21       1.0  0.52697  0.40700  0.46809  1.0000
  O   O22       1.0  0.52697  0.59300  0.96809  1.0000
  O   O23       1.0  0.02697  0.90700  0.46809  1.0000
  O   O24       1.0  0.02697  0.09300  0.96809  1.0000
  O   O25       1.0  0.20871  0.43024  0.21846  1.0000
  O   O26       1.0  0.20871  0.56976  0.71846  1.0000
  O   O27       1.0  0.70871  0.93024  0.21846  1.0000
  O   O28       1.0  0.70871  0.06976  0.71846  1.0000
  O   O29       1.0  0.40109  0.50317  0.14048  1.0000
  O   O30       1.0  0.40109  0.49683  0.64048  1.0000
  O   O31       1.0  0.90109  0.00317  0.14048  1.0000
  O   O32       1.0  0.90109  0.99683  0.64048  1.0000
  O   O33       1.0  0.90429  0.33603  0.24122  1.0000
  O   O34       1.0  0.90429  0.66397  0.74122  1.0000
  O   O35       1.0  0.40429  0.83603  0.24122  1.0000
  O   O36       1.0  0.40429  0.16397  0.74122  1.0000
  O   O37       1.0  0.70255  0.40076  0.16224  1.0000
  O   O38       1.0  0.70255  0.59924  0.66224  1.0000
  O   O39       1.0  0.20255  0.90076  0.16224  1.0000
  O   O40       1.0  0.20255  0.09924  0.66224  1.0000
  O   O41       1.0  0.03202  0.43735  0.41420  1.0000
  O   O42       1.0  0.03202  0.56265  0.91420  1.0000
  O   O43       1.0  0.53202  0.93735  0.41420  1.0000
  O   O44       1.0  0.53202  0.06265  0.91420  1.0000
  O   O45       1.0  0.83320  0.50458  0.49335  1.0000
  O   O46       1.0  0.83320  0.49542  0.99335  1.0000
  O   O47       1.0  0.33320  0.00458  0.49335  1.0000
  O   O48       1.0  0.33320  0.99542  0.99335  1.0000
  C   C1        1.0  0.08363  0.16280  0.43480  1.0000
  C   C2        1.0  0.08363  0.83720  0.93480  1.0000
  C   C3        1.0  0.58363  0.66280  0.43480  1.0000
  C   C4        1.0  0.58363  0.33720  0.93480  1.0000
  H   H1        1.0  0.18090  0.14660  0.40390  1.0000
  H   H2        1.0  0.18090  0.85340  0.90390  1.0000
  H   H3        1.0  0.68090  0.64660  0.40390  1.0000
  H   H4        1.0  0.68090  0.35340  0.90390  1.0000
  C   C5        1.0  0.14066  0.16735  0.19281  1.0000
  C   C6        1.0  0.14066  0.83265  0.69281  1.0000
  C   C7        1.0  0.64066  0.66735  0.19281  1.0000
  C   C8        1.0  0.64066  0.33265  0.69281  1.0000
  H   H5        1.0  0.02980  0.15980  0.20360  1.0000
  H   H6        1.0  0.02980  0.84020  0.70360  1.0000
  H   H7        1.0  0.52980  0.65980  0.20360  1.0000
  H   H8        1.0  0.52980  0.34020  0.70360  1.0000
  C   C9        1.0  0.38807  0.38173  0.45555  1.0000
  C   C10       1.0  0.38807  0.61827  0.95555  1.0000
  C   C11       1.0  0.88807  0.88173  0.45555  1.0000
  C   C12       1.0  0.88807  0.11827  0.95555  1.0000
  H   H9        1.0  0.31320  0.40010  0.50400  1.0000
  H   H10       1.0  0.31320  0.59990  0.00400  1.0000
  H   H11       1.0  0.81320  0.90010  0.50400  1.0000
  H   H12       1.0  0.81320  0.09990  0.00400  1.0000
  C   C13       1.0  0.34610  0.46276  0.21325  1.0000
  C   C14       1.0  0.34610  0.53724  0.71325  1.0000
  C   C15       1.0  0.84610  0.96276  0.21325  1.0000
  C   C16       1.0  0.84610  0.03724  0.71325  1.0000
  H   H13       1.0  0.41330  0.45600  0.26920  1.0000
  H   H14       1.0  0.41330  0.54400  0.76920  1.0000
  H   H15       1.0  0.91330  0.95600  0.26920  1.0000
  H   H16       1.0  0.91330  0.04400  0.76920  1.0000
  C   C17       1.0  0.83625  0.40154  0.20348  1.0000
  C   C18       1.0  0.83625  0.59846  0.70348  1.0000
  C   C19       1.0  0.33625  0.90154  0.20348  1.0000
  C   C20       1.0  0.33625  0.09846  0.70348  1.0000
  H   H17       1.0  0.89040  0.45750  0.20600  1.0000
  H   H18       1.0  0.89040  0.54250  0.70600  1.0000
  H   H19       1.0  0.39040  0.95750  0.20600  1.0000
  H   H20       1.0  0.39040  0.04250  0.70600  1.0000
  C   C21       1.0  0.89046  0.44081  0.44538  1.0000
  C   C22       1.0  0.89046  0.55919  0.94538  1.0000
  C   C23       1.0  0.39046  0.94081  0.44538  1.0000
  C   C24       1.0  0.39046  0.05919  0.94538  1.0000
  H   H21       1.0  0.82290  0.39130  0.43130  1.0000
  H   H22       1.0  0.82290  0.60870  0.93130  1.0000
  H   H23       1.0  0.32290  0.89130  0.43130  1.0000
  H   H24       1.0  0.32290  0.10870  0.93130  1.0000
