data_image0
_chemical_formula_structural       In4O8C4H8C4H4C8O8C4H8C16H4C4H8C4H4O4C4H4O4C4O4C4H4C8H4O4C4H8C8H4C4H4
_chemical_formula_sum              "In4 O32 C80 H64"
_cell_length_a       19.192
_cell_length_b       8.772
_cell_length_c       16.666
_cell_angle_alpha    90
_cell_angle_beta     120.71
_cell_angle_gamma    90

_space_group_name_H-M_alt    "P 1"
_space_group_IT_number       1

loop_
  _space_group_symop_operation_xyz
  'x, y, z'

loop_
  _atom_site_type_symbol
  _atom_site_label
  _atom_site_symmetry_multiplicity
  _atom_site_fract_x
  _atom_site_fract_y
  _atom_site_fract_z
  _atom_site_occupancy
  In  In1       1.0  0.22804  0.83764  0.16884  1.0000
  In  In2       1.0  0.22804  0.16236  0.66884  1.0000
  In  In3       1.0  0.72804  0.33764  0.16884  1.0000
  In  In4       1.0  0.72804  0.66236  0.66884  1.0000
  O   O1        1.0  0.32700  0.65810  0.23940  1.0000
  O   O2        1.0  0.32700  0.34190  0.73940  1.0000
  O   O3        1.0  0.82700  0.15810  0.23940  1.0000
  O   O4        1.0  0.82700  0.84190  0.73940  1.0000
  O   O5        1.0  0.13230  0.65170  0.09440  1.0000
  O   O6        1.0  0.13230  0.34830  0.59440  1.0000
  O   O7        1.0  0.63230  0.15170  0.09440  1.0000
  O   O8        1.0  0.63230  0.84830  0.59440  1.0000
  C   C1        1.0  0.40180  0.83300  0.72470  1.0000
  C   C2        1.0  0.40180  0.16700  0.22470  1.0000
  C   C3        1.0  0.90180  0.33300  0.72470  1.0000
  C   C4        1.0  0.90180  0.66700  0.22470  1.0000
  H   H1        1.0  0.40310  0.75860  0.76850  1.0000
  H   H2        1.0  0.40310  0.24140  0.26850  1.0000
  H   H3        1.0  0.90310  0.25860  0.76850  1.0000
  H   H4        1.0  0.90310  0.74140  0.26850  1.0000
  H   H5        1.0  0.45480  0.88100  0.75510  1.0000
  H   H6        1.0  0.45480  0.11900  0.25510  1.0000
  H   H7        1.0  0.95480  0.38100  0.75510  1.0000
  H   H8        1.0  0.95480  0.61900  0.25510  1.0000
  C   C5        1.0  0.34400  0.63800  0.60070  1.0000
  C   C6        1.0  0.34400  0.36200  0.10070  1.0000
  C   C7        1.0  0.84400  0.13800  0.60070  1.0000
  C   C8        1.0  0.84400  0.86200  0.10070  1.0000
  H   H9        1.0  0.31170  0.60310  0.62360  1.0000
  H   H10       1.0  0.31170  0.39690  0.12360  1.0000
  H   H11       1.0  0.81170  0.10310  0.62360  1.0000
  H   H12       1.0  0.81170  0.89690  0.12360  1.0000
  C   C9        1.0  0.14010  0.65040  0.02110  1.0000
  C   C10       1.0  0.14010  0.34960  0.52110  1.0000
  C   C11       1.0  0.64010  0.15040  0.02110  1.0000
  C   C12       1.0  0.64010  0.84960  0.52110  1.0000
  C   C13       1.0  0.31260  0.65360  0.29950  1.0000
  C   C14       1.0  0.31260  0.34640  0.79950  1.0000
  C   C15       1.0  0.81260  0.15360  0.29950  1.0000
  C   C16       1.0  0.81260  0.84640  0.79950  1.0000
  O   O9        1.0  0.25920  0.72730  0.30870  1.0000
  O   O10       1.0  0.25920  0.27270  0.80870  1.0000
  O   O11       1.0  0.75920  0.22730  0.30870  1.0000
  O   O12       1.0  0.75920  0.77270  0.80870  1.0000
  O   O13       1.0  0.19880  0.73220  0.03200  1.0000
  O   O14       1.0  0.19880  0.26780  0.53200  1.0000
  O   O15       1.0  0.69880  0.23220  0.03200  1.0000
  O   O16       1.0  0.69880  0.76780  0.53200  1.0000
  C   C17       1.0  0.04870  0.82230  0.59970  1.0000
  C   C18       1.0  0.04870  0.17770  0.09970  1.0000
  C   C19       1.0  0.54870  0.32230  0.59970  1.0000
  C   C20       1.0  0.54870  0.67770  0.09970  1.0000
  H   H13       1.0  0.99550  0.86690  0.56060  1.0000
  H   H14       1.0  0.99550  0.13310  0.06060  1.0000
  H   H15       1.0  0.49550  0.36690  0.56060  1.0000
  H   H16       1.0  0.49550  0.63310  0.06060  1.0000
  H   H17       1.0  0.05730  0.74460  0.56410  1.0000
  H   H18       1.0  0.05730  0.25540  0.06410  1.0000
  H   H19       1.0  0.55730  0.24460  0.56410  1.0000
  H   H20       1.0  0.55730  0.75540  0.06410  1.0000
  C   C21       1.0  0.05650  0.75040  0.69280  1.0000
  C   C22       1.0  0.05650  0.24960  0.19280  1.0000
  C   C23       1.0  0.55650  0.25040  0.69280  1.0000
  C   C24       1.0  0.55650  0.74960  0.19280  1.0000
  C   C25       1.0  0.39620  0.74800  0.64900  1.0000
  C   C26       1.0  0.39620  0.25200  0.14900  1.0000
  C   C27       1.0  0.89620  0.24800  0.64900  1.0000
  C   C28       1.0  0.89620  0.75200  0.14900  1.0000
  C   C29       1.0  0.07850  0.61900  0.85710  1.0000
  C   C30       1.0  0.07850  0.38100  0.35710  1.0000
  C   C31       1.0  0.57850  0.11900  0.85710  1.0000
  C   C32       1.0  0.57850  0.88100  0.35710  1.0000
  C   C33       1.0  0.11850  0.63730  0.73760  1.0000
  C   C34       1.0  0.11850  0.36270  0.23760  1.0000
  C   C35       1.0  0.61850  0.13730  0.73760  1.0000
  C   C36       1.0  0.61850  0.86270  0.23760  1.0000
  H   H21       1.0  0.15140  0.60730  0.71440  1.0000
  H   H22       1.0  0.15140  0.39270  0.21440  1.0000
  H   H23       1.0  0.65140  0.10730  0.71440  1.0000
  H   H24       1.0  0.65140  0.89270  0.21440  1.0000
  C   C37       1.0  0.37070  0.56000  0.39710  1.0000
  C   C38       1.0  0.37070  0.44000  0.89710  1.0000
  C   C39       1.0  0.87070  0.06000  0.39710  1.0000
  C   C40       1.0  0.87070  0.94000  0.89710  1.0000
  H   H25       1.0  0.35020  0.45620  0.38760  1.0000
  H   H26       1.0  0.35020  0.54380  0.88760  1.0000
  H   H27       1.0  0.85020  0.95620  0.38760  1.0000
  H   H28       1.0  0.85020  0.04380  0.88760  1.0000
  H   H29       1.0  0.42420  0.55400  0.40470  1.0000
  H   H30       1.0  0.42420  0.44600  0.90470  1.0000
  H   H31       1.0  0.92420  0.05400  0.40470  1.0000
  H   H32       1.0  0.92420  0.94600  0.90470  1.0000
  C   C41       1.0  0.00960  0.78560  0.72850  1.0000
  C   C42       1.0  0.00960  0.21440  0.22850  1.0000
  C   C43       1.0  0.50960  0.28560  0.72850  1.0000
  C   C44       1.0  0.50960  0.71440  0.22850  1.0000
  H   H33       1.0  0.97130  0.86200  0.69860  1.0000
  H   H34       1.0  0.97130  0.13800  0.19860  1.0000
  H   H35       1.0  0.47130  0.36200  0.69860  1.0000
  H   H36       1.0  0.47130  0.63800  0.19860  1.0000
  O   O17       1.0  0.33240  0.00970  0.77110  1.0000
  O   O18       1.0  0.33240  0.99030  0.27110  1.0000
  O   O19       1.0  0.83240  0.50970  0.77110  1.0000
  O   O20       1.0  0.83240  0.49030  0.27110  1.0000
  C   C45       1.0  0.01270  0.72100  0.80260  1.0000
  C   C46       1.0  0.01270  0.27900  0.30260  1.0000
  C   C47       1.0  0.51270  0.22100  0.80260  1.0000
  C   C48       1.0  0.51270  0.77900  0.30260  1.0000
  H   H37       1.0  0.97380  0.74240  0.81850  1.0000
  H   H38       1.0  0.97380  0.25760  0.31850  1.0000
  H   H39       1.0  0.47380  0.24240  0.81850  1.0000
  H   H40       1.0  0.47380  0.75760  0.31850  1.0000
  O   O21       1.0  0.30740  0.01390  0.63270  1.0000
  O   O22       1.0  0.30740  0.98610  0.13270  1.0000
  O   O23       1.0  0.80740  0.51390  0.63270  1.0000
  O   O24       1.0  0.80740  0.48610  0.13270  1.0000
  C   C49       1.0  0.34320  0.95370  0.71590  1.0000
  C   C50       1.0  0.34320  0.04630  0.21590  1.0000
  C   C51       1.0  0.84320  0.45370  0.71590  1.0000
  C   C52       1.0  0.84320  0.54630  0.21590  1.0000
  O   O25       1.0  0.12760  0.98660  0.56710  1.0000
  O   O26       1.0  0.12760  0.01340  0.06710  1.0000
  O   O27       1.0  0.62760  0.48660  0.56710  1.0000
  O   O28       1.0  0.62760  0.51340  0.06710  1.0000
  C   C53       1.0  0.33270  0.57250  0.52350  1.0000
  C   C54       1.0  0.33270  0.42750  0.02350  1.0000
  C   C55       1.0  0.83270  0.07250  0.52350  1.0000
  C   C56       1.0  0.83270  0.92750  0.02350  1.0000
  H   H41       1.0  0.29230  0.49970  0.49310  1.0000
  H   H42       1.0  0.29230  0.50030  0.99310  1.0000
  H   H43       1.0  0.79230  0.99970  0.49310  1.0000
  H   H44       1.0  0.79230  0.00030  0.99310  1.0000
  C   C57       1.0  0.11750  0.95000  0.63520  1.0000
  C   C58       1.0  0.11750  0.05000  0.13520  1.0000
  C   C59       1.0  0.61750  0.45000  0.63520  1.0000
  C   C60       1.0  0.61750  0.55000  0.13520  1.0000
  C   C61       1.0  0.12580  0.57340  0.82180  1.0000
  C   C62       1.0  0.12580  0.42660  0.32180  1.0000
  C   C63       1.0  0.62580  0.07340  0.82180  1.0000
  C   C64       1.0  0.62580  0.92660  0.32180  1.0000
  H   H45       1.0  0.16450  0.49820  0.85330  1.0000
  H   H46       1.0  0.16450  0.50180  0.35330  1.0000
  H   H47       1.0  0.66450  0.99820  0.85330  1.0000
  H   H48       1.0  0.66450  0.00180  0.35330  1.0000
  O   O29       1.0  0.15580  0.00720  0.70680  1.0000
  O   O30       1.0  0.15580  0.99280  0.20680  1.0000
  O   O31       1.0  0.65580  0.50720  0.70680  1.0000
  O   O32       1.0  0.65580  0.49280  0.20680  1.0000
  C   C65       1.0  0.09430  0.54700  0.94840  1.0000
  C   C66       1.0  0.09430  0.45300  0.44840  1.0000
  C   C67       1.0  0.59430  0.04700  0.94840  1.0000
  C   C68       1.0  0.59430  0.95300  0.44840  1.0000
  H   H49       1.0  0.04340  0.52590  0.94520  1.0000
  H   H50       1.0  0.04340  0.47410  0.44520  1.0000
  H   H51       1.0  0.54340  0.02590  0.94520  1.0000
  H   H52       1.0  0.54340  0.97410  0.44520  1.0000
  H   H53       1.0  0.12380  0.45240  0.95950  1.0000
  H   H54       1.0  0.12380  0.54760  0.45950  1.0000
  H   H55       1.0  0.62380  0.95240  0.95950  1.0000
  H   H56       1.0  0.62380  0.04760  0.45950  1.0000
  C   C69       1.0  0.38170  0.61300  0.48840  1.0000
  C   C70       1.0  0.38170  0.38700  0.98840  1.0000
  C   C71       1.0  0.88170  0.11300  0.48840  1.0000
  C   C72       1.0  0.88170  0.88700  0.98840  1.0000
  C   C73       1.0  0.43480  0.72200  0.53480  1.0000
  C   C74       1.0  0.43480  0.27800  0.03480  1.0000
  C   C75       1.0  0.93480  0.22200  0.53480  1.0000
  C   C76       1.0  0.93480  0.77800  0.03480  1.0000
  H   H57       1.0  0.46570  0.75690  0.51000  1.0000
  H   H58       1.0  0.46570  0.24310  0.01000  1.0000
  H   H59       1.0  0.96570  0.25690  0.51000  1.0000
  H   H60       1.0  0.96570  0.74310  0.01000  1.0000
  C   C77       1.0  0.44910  0.79100  0.61890  1.0000
  C   C78       1.0  0.44910  0.20900  0.11890  1.0000
  C   C79       1.0  0.94910  0.29100  0.61890  1.0000
  C   C80       1.0  0.94910  0.70900  0.11890  1.0000
  H   H61       1.0  0.49100  0.86050  0.65170  1.0000
  H   H62       1.0  0.49100  0.13950  0.15170  1.0000
  H   H63       1.0  0.99100  0.36050  0.65170  1.0000
  H   H64       1.0  0.99100  0.63950  0.15170  1.0000
