data_image0
_chemical_formula_structural       Zn4O24C4H2C2H2C2H2C4H2C8H2C2H2C2H2C4H2C6H2C4H2C2H2C2H2C6Zn2O2C2O2C4H2C2H2C2H2C2H2C4O4
_chemical_formula_sum              "Zn6 O32 C64 H32"
_cell_length_a       9.422
_cell_length_b       10.196
_cell_length_c       25.032
_cell_angle_alpha    90
_cell_angle_beta     96.37
_cell_angle_gamma    90

_space_group_name_H-M_alt    "P 1"
_space_group_IT_number       1

loop_
  _space_group_symop_operation_xyz
  'x, y, z'

loop_
  _atom_site_type_symbol
  _atom_site_label
  _atom_site_symmetry_multiplicity
  _atom_site_fract_x
  _atom_site_fract_y
  _atom_site_fract_z
  _atom_site_occupancy
  Zn  Zn1       1.0  0.05840  0.56917  0.23778  1.0000
  Zn  Zn2       1.0  0.94160  0.06917  0.76222  1.0000
  Zn  Zn3       1.0  0.07563  0.76508  0.13167  1.0000
  Zn  Zn4       1.0  0.92437  0.26508  0.86833  1.0000
  O   O1        1.0  0.06220  0.47770  0.16340  1.0000
  O   O2        1.0  0.93780  0.97770  0.83660  1.0000
  O   O3        1.0  0.07070  0.60030  0.09020  1.0000
  O   O4        1.0  0.92930  0.10030  0.90980  1.0000
  O   O5        1.0  0.03010  0.00090  0.14580  1.0000
  O   O6        1.0  0.96990  0.50090  0.85420  1.0000
  O   O7        1.0  0.11300  0.90660  0.07800  1.0000
  O   O8        1.0  0.88700  0.40660  0.92200  1.0000
  O   O9        1.0  0.15550  0.39620  0.28530  1.0000
  O   O10       1.0  0.84450  0.89620  0.71470  1.0000
  O   O11       1.0  0.31760  0.33420  0.34990  1.0000
  O   O12       1.0  0.68240  0.83420  0.65010  1.0000
  O   O13       1.0  0.86980  0.47980  0.23780  1.0000
  O   O14       1.0  0.13020  0.97980  0.76220  1.0000
  O   O15       1.0  0.83290  0.39510  0.31710  1.0000
  O   O16       1.0  0.16710  0.89510  0.68290  1.0000
  O   O17       1.0  0.95980  0.73670  0.19340  1.0000
  O   O18       1.0  0.04020  0.23670  0.80660  1.0000
  O   O19       1.0  0.79710  0.78540  0.12810  1.0000
  O   O20       1.0  0.20290  0.28540  0.87190  1.0000
  O   O21       1.0  0.24900  0.65660  0.24220  1.0000
  O   O22       1.0  0.75100  0.15660  0.75780  1.0000
  O   O23       1.0  0.27850  0.75850  0.16410  1.0000
  O   O24       1.0  0.72150  0.25850  0.83590  1.0000
  C   C1        1.0  0.09090  0.37180  0.08240  1.0000
  C   C2        1.0  0.90910  0.87180  0.91760  1.0000
  C   C3        1.0  0.12790  0.37970  0.03040  1.0000
  C   C4        1.0  0.87210  0.87970  0.96960  1.0000
  H   H1        1.0  0.13620  0.46140  0.01440  1.0000
  H   H2        1.0  0.86380  0.96140  0.98560  1.0000
  C   C5        1.0  0.15200  0.26880  0.00250  1.0000
  C   C6        1.0  0.84800  0.76880  0.99750  1.0000
  H   H3        1.0  0.17750  0.27540  0.96780  1.0000
  H   H4        1.0  0.82250  0.77540  0.03220  1.0000
  C   C7        1.0  0.13910  0.14710  0.02510  1.0000
  C   C8        1.0  0.86090  0.64710  0.97490  1.0000
  H   H5        1.0  0.15590  0.07150  0.00600  1.0000
  H   H6        1.0  0.84410  0.57150  0.99400  1.0000
  C   C9        1.0  0.10070  0.13900  0.07690  1.0000
  C   C10       1.0  0.89930  0.63900  0.92310  1.0000
  C   C11       1.0  0.08000  0.25250  0.10550  1.0000
  C   C12       1.0  0.92000  0.75250  0.89450  1.0000
  H   H7        1.0  0.05850  0.24690  0.14080  1.0000
  H   H8        1.0  0.94150  0.74690  0.85920  1.0000
  C   C13       1.0  0.07270  0.49400  0.11490  1.0000
  C   C14       1.0  0.92730  0.99400  0.88510  1.0000
  C   C15       1.0  0.07870  0.00710  0.10230  1.0000
  C   C16       1.0  0.92130  0.50710  0.89770  1.0000
  C   C17       1.0  0.39640  0.37990  0.26540  1.0000
  C   C18       1.0  0.60360  0.87990  0.73460  1.0000
  C   C19       1.0  0.35600  0.37490  0.21020  1.0000
  C   C20       1.0  0.64400  0.87490  0.78980  1.0000
  H   H9        1.0  0.26100  0.36170  0.19690  1.0000
  H   H10       1.0  0.73900  0.86170  0.80310  1.0000
  C   C21       1.0  0.45950  0.38980  0.17560  1.0000
  C   C22       1.0  0.54050  0.88980  0.82440  1.0000
  H   H11       1.0  0.43400  0.38680  0.13870  1.0000
  H   H12       1.0  0.56600  0.88680  0.86130  1.0000
  C   C23       1.0  0.59900  0.40890  0.19540  1.0000
  C   C24       1.0  0.40100  0.90890  0.80460  1.0000
  H   H13       1.0  0.66680  0.42110  0.17150  1.0000
  H   H14       1.0  0.33320  0.92110  0.82850  1.0000
  C   C25       1.0  0.64100  0.41060  0.24900  1.0000
  C   C26       1.0  0.35900  0.91060  0.75100  1.0000
  C   C27       1.0  0.53640  0.39680  0.28370  1.0000
  C   C28       1.0  0.46360  0.89680  0.71630  1.0000
  H   H15       1.0  0.56320  0.39910  0.32060  1.0000
  H   H16       1.0  0.43680  0.89910  0.67940  1.0000
  C   C29       1.0  0.28340  0.36800  0.30280  1.0000
  C   C30       1.0  0.71660  0.86800  0.69720  1.0000
  C   C31       1.0  0.79360  0.42990  0.27090  1.0000
  C   C32       1.0  0.20640  0.92990  0.72910  1.0000
  C   C33       1.0  0.57610  0.74350  0.19310  1.0000
  C   C34       1.0  0.42390  0.24350  0.80690  1.0000
  H   H17       1.0  0.54840  0.74360  0.15630  1.0000
  H   H18       1.0  0.45160  0.24360  0.84370  1.0000
  C   C35       1.0  0.71980  0.75500  0.21350  1.0000
  C   C36       1.0  0.28020  0.25500  0.78650  1.0000
  C   C37       1.0  0.76030  0.76240  0.26740  1.0000
  C   C38       1.0  0.23970  0.26240  0.73260  1.0000
  H   H19       1.0  0.85640  0.77320  0.27970  1.0000
  H   H20       1.0  0.14360  0.27320  0.72030  1.0000
  C   C39       1.0  0.66000  0.75420  0.30450  1.0000
  C   C40       1.0  0.34000  0.25420  0.69550  1.0000
  H   H21       1.0  0.68780  0.76110  0.34120  1.0000
  H   H22       1.0  0.31220  0.26110  0.65880  1.0000
  C   C41       1.0  0.51910  0.73560  0.28510  1.0000
  C   C42       1.0  0.48090  0.23560  0.71490  1.0000
  H   H23       1.0  0.45140  0.72550  0.30910  1.0000
  H   H24       1.0  0.54860  0.22550  0.69090  1.0000
  C   C43       1.0  0.47570  0.73180  0.22970  1.0000
  C   C44       1.0  0.52430  0.23180  0.77030  1.0000
  C   C45       1.0  0.83220  0.75950  0.17560  1.0000
  C   C46       1.0  0.16780  0.25950  0.82440  1.0000
  C   C47       1.0  0.32140  0.71460  0.20920  1.0000
  C   C48       1.0  0.67860  0.21460  0.79080  1.0000
  Zn  Zn5       1.0  0.03733  0.37780  0.34596  1.0000
  Zn  Zn6       1.0  0.96267  0.87780  0.65404  1.0000
  O   O25       1.0  0.03760  0.23470  0.40090  1.0000
  O   O26       1.0  0.96240  0.73470  0.59910  1.0000
  C   C49       1.0  0.03270  0.13370  0.37280  1.0000
  C   C50       1.0  0.96730  0.63370  0.62720  1.0000
  O   O27       1.0  0.01680  0.13760  0.32400  1.0000
  O   O28       1.0  0.98320  0.63760  0.67600  1.0000
  C   C51       1.0  0.04500  0.00250  0.40120  1.0000
  C   C52       1.0  0.95500  0.50250  0.59880  1.0000
  C   C53       1.0  0.05500  0.99530  0.45720  1.0000
  C   C54       1.0  0.94500  0.49530  0.54280  1.0000
  H   H25       1.0  0.05390  0.07160  0.47750  1.0000
  H   H26       1.0  0.94610  0.57160  0.52250  1.0000
  C   C55       1.0  0.05100  0.88670  0.37230  1.0000
  C   C56       1.0  0.94900  0.38670  0.62770  1.0000
  H   H27       1.0  0.04800  0.89170  0.33510  1.0000
  H   H28       1.0  0.95200  0.39170  0.66490  1.0000
  C   C57       1.0  0.06800  0.87500  0.48230  1.0000
  C   C58       1.0  0.93200  0.37500  0.51770  1.0000
  H   H29       1.0  0.07530  0.87010  0.51960  1.0000
  H   H30       1.0  0.92470  0.37010  0.48040  1.0000
  C   C59       1.0  0.07030  0.76510  0.45220  1.0000
  C   C60       1.0  0.92970  0.26510  0.54780  1.0000
  H   H31       1.0  0.07820  0.68510  0.47010  1.0000
  H   H32       1.0  0.92180  0.18510  0.52990  1.0000
  C   C61       1.0  0.06130  0.76350  0.39630  1.0000
  C   C62       1.0  0.93870  0.26350  0.60370  1.0000
  C   C63       1.0  0.05820  0.64720  0.36430  1.0000
  C   C64       1.0  0.94180  0.14720  0.63570  1.0000
  O   O29       1.0  0.04720  0.65700  0.31600  1.0000
  O   O30       1.0  0.95280  0.15700  0.68400  1.0000
  O   O31       1.0  0.06720  0.53720  0.39110  1.0000
  O   O32       1.0  0.93280  0.03720  0.60890  1.0000
