data_image0
_chemical_formula_structural       Fe18F48O24C4H4C4H4C4H4
_chemical_formula_sum              "Fe18 F48 O24 C12 H12"
_cell_length_a       11.1732
_cell_length_b       6.6588
_cell_length_c       31.785
_cell_angle_alpha    90
_cell_angle_beta     91.515
_cell_angle_gamma    90

_space_group_name_H-M_alt    "P 1"
_space_group_IT_number       1

loop_
  _space_group_symop_operation_xyz
  'x, y, z'

loop_
  _atom_site_type_symbol
  _atom_site_label
  _atom_site_symmetry_multiplicity
  _atom_site_fract_x
  _atom_site_fract_y
  _atom_site_fract_z
  _atom_site_occupancy
  Fe  Fe1       1.0  0.00000  0.69471  0.25000  1.0000
  Fe  Fe2       1.0  0.00000  0.30529  0.75000  1.0000
  Fe  Fe3       1.0  0.52726  0.71816  0.41379  1.0000
  Fe  Fe4       1.0  0.47274  0.71816  0.08621  1.0000
  Fe  Fe5       1.0  0.47274  0.28184  0.58621  1.0000
  Fe  Fe6       1.0  0.52726  0.28184  0.91379  1.0000
  Fe  Fe7       1.0  0.80433  0.71630  0.41949  1.0000
  Fe  Fe8       1.0  0.19567  0.71630  0.08051  1.0000
  Fe  Fe9       1.0  0.19567  0.28370  0.58051  1.0000
  Fe  Fe10      1.0  0.80433  0.28370  0.91949  1.0000
  Fe  Fe11      1.0  0.66534  0.21943  0.41636  1.0000
  Fe  Fe12      1.0  0.33466  0.21943  0.08364  1.0000
  Fe  Fe13      1.0  0.33466  0.78057  0.58364  1.0000
  Fe  Fe14      1.0  0.66534  0.78057  0.91636  1.0000
  Fe  Fe15      1.0  0.86134  0.19225  0.24671  1.0000
  Fe  Fe16      1.0  0.13866  0.19225  0.25329  1.0000
  Fe  Fe17      1.0  0.13866  0.80775  0.75329  1.0000
  Fe  Fe18      1.0  0.86134  0.80775  0.74671  1.0000
  F   F1        1.0  0.99580  0.19020  0.28969  1.0000
  F   F2        1.0  0.00420  0.19020  0.21031  1.0000
  F   F3        1.0  0.00420  0.80980  0.71031  1.0000
  F   F4        1.0  0.99580  0.80980  0.78969  1.0000
  F   F5        1.0  0.66290  0.71050  0.45618  1.0000
  F   F6        1.0  0.33710  0.71050  0.04382  1.0000
  F   F7        1.0  0.33710  0.28950  0.54382  1.0000
  F   F8        1.0  0.66290  0.28950  0.95618  1.0000
  F   F9        1.0  0.66880  0.72070  0.37687  1.0000
  F   F10       1.0  0.33120  0.72070  0.12313  1.0000
  F   F11       1.0  0.33120  0.27930  0.62313  1.0000
  F   F12       1.0  0.66880  0.27930  0.87687  1.0000
  F   F13       1.0  0.53520  0.00400  0.41814  1.0000
  F   F14       1.0  0.46480  0.00400  0.08186  1.0000
  F   F15       1.0  0.46480  0.99600  0.58186  1.0000
  F   F16       1.0  0.53520  0.99600  0.91814  1.0000
  F   F17       1.0  0.52720  0.43070  0.41504  1.0000
  F   F18       1.0  0.47280  0.43070  0.08496  1.0000
  F   F19       1.0  0.47280  0.56930  0.58496  1.0000
  F   F20       1.0  0.52720  0.56930  0.91504  1.0000
  F   F21       1.0  0.79930  0.42760  0.41467  1.0000
  F   F22       1.0  0.20070  0.42760  0.08533  1.0000
  F   F23       1.0  0.20070  0.57240  0.58533  1.0000
  F   F24       1.0  0.79930  0.57240  0.91467  1.0000
  F   F25       1.0  0.86730  0.47800  0.25026  1.0000
  F   F26       1.0  0.13270  0.47800  0.24974  1.0000
  F   F27       1.0  0.13270  0.52200  0.74974  1.0000
  F   F28       1.0  0.86730  0.52200  0.75026  1.0000
  F   F29       1.0  0.75720  0.19750  0.19915  1.0000
  F   F30       1.0  0.24280  0.19750  0.30085  1.0000
  F   F31       1.0  0.24280  0.80250  0.80085  1.0000
  F   F32       1.0  0.75720  0.80250  0.69915  1.0000
  F   F33       1.0  0.42140  0.72980  0.36665  1.0000
  F   F34       1.0  0.57860  0.72980  0.13335  1.0000
  F   F35       1.0  0.57860  0.27020  0.63335  1.0000
  F   F36       1.0  0.42140  0.27020  0.86665  1.0000
  F   F37       1.0  0.91100  0.71100  0.46634  1.0000
  F   F38       1.0  0.08900  0.71100  0.03366  1.0000
  F   F39       1.0  0.08900  0.28900  0.53366  1.0000
  F   F40       1.0  0.91100  0.28900  0.96634  1.0000
  F   F41       1.0  0.80010  0.00050  0.41761  1.0000
  F   F42       1.0  0.19990  0.00050  0.08239  1.0000
  F   F43       1.0  0.19990  0.99950  0.58239  1.0000
  F   F44       1.0  0.80010  0.99950  0.91761  1.0000
  F   F45       1.0  0.86350  0.90540  0.24980  1.0000
  F   F46       1.0  0.13650  0.90540  0.25020  1.0000
  F   F47       1.0  0.13650  0.09460  0.75020  1.0000
  F   F48       1.0  0.86350  0.09460  0.74980  1.0000
  O   O1        1.0  0.31870  0.76710  0.51719  1.0000
  O   O2        1.0  0.68130  0.76710  0.98281  1.0000
  O   O3        1.0  0.68130  0.23290  0.48281  1.0000
  O   O4        1.0  0.31870  0.23290  0.01719  1.0000
  O   O5        1.0  0.65000  0.21300  0.34959  1.0000
  O   O6        1.0  0.35000  0.21300  0.15041  1.0000
  O   O7        1.0  0.35000  0.78700  0.65041  1.0000
  O   O8        1.0  0.65000  0.78700  0.84959  1.0000
  O   O9        1.0  0.93540  0.71730  0.37884  1.0000
  O   O10       1.0  0.06460  0.71730  0.12116  1.0000
  O   O11       1.0  0.06460  0.28270  0.62116  1.0000
  O   O12       1.0  0.93540  0.28270  0.87884  1.0000
  O   O13       1.0  0.39750  0.72210  0.45497  1.0000
  O   O14       1.0  0.60250  0.72210  0.04503  1.0000
  O   O15       1.0  0.60250  0.27790  0.54503  1.0000
  O   O16       1.0  0.39750  0.27790  0.95497  1.0000
  O   O17       1.0  0.01590  0.69880  0.31652  1.0000
  O   O18       1.0  0.98410  0.69880  0.18348  1.0000
  O   O19       1.0  0.98410  0.30120  0.68348  1.0000
  O   O20       1.0  0.01590  0.30120  0.81652  1.0000
  O   O21       1.0  0.72970  0.19590  0.28703  1.0000
  O   O22       1.0  0.27030  0.19590  0.21297  1.0000
  O   O23       1.0  0.27030  0.80410  0.71297  1.0000
  O   O24       1.0  0.72970  0.80410  0.78703  1.0000
  C   C1        1.0  0.40620  0.74020  0.49457  1.0000
  C   C2        1.0  0.59380  0.74020  0.00543  1.0000
  C   C3        1.0  0.59380  0.25980  0.50543  1.0000
  C   C4        1.0  0.40620  0.25980  0.99457  1.0000
  H   H1        1.0  0.48188  0.73297  0.50738  1.0000
  H   H2        1.0  0.51812  0.73297  0.99262  1.0000
  H   H3        1.0  0.51812  0.26703  0.49262  1.0000
  H   H4        1.0  0.48188  0.26703  0.00738  1.0000
  C   C5        1.0  0.92850  0.69660  0.33924  1.0000
  C   C6        1.0  0.07150  0.69660  0.16076  1.0000
  C   C7        1.0  0.07150  0.30340  0.66076  1.0000
  C   C8        1.0  0.92850  0.30340  0.83924  1.0000
  H   H5        1.0  0.85321  0.67878  0.32664  1.0000
  H   H6        1.0  0.14679  0.67878  0.17336  1.0000
  H   H7        1.0  0.14679  0.32122  0.67336  1.0000
  H   H8        1.0  0.85321  0.32122  0.82664  1.0000
  C   C9        1.0  0.73710  0.19110  0.32689  1.0000
  C   C10       1.0  0.26290  0.19110  0.17311  1.0000
  C   C11       1.0  0.26290  0.80890  0.67311  1.0000
  C   C12       1.0  0.73710  0.80890  0.82689  1.0000
  H   H9        1.0  0.81185  0.17010  0.33969  1.0000
  H   H10       1.0  0.18815  0.17010  0.16031  1.0000
  H   H11       1.0  0.18815  0.82990  0.66031  1.0000
  H   H12       1.0  0.81185  0.82990  0.83969  1.0000
