data_image0
_chemical_formula_structural       Bi2I12K2N2C12N2H24
_chemical_formula_sum              "Bi2 I12 K2 N4 C12 H24"
_cell_length_a       10.1617
_cell_length_b       10.1617
_cell_length_c       14.7911
_cell_angle_alpha    90
_cell_angle_beta     90
_cell_angle_gamma    120

_space_group_name_H-M_alt    "P 1"
_space_group_IT_number       1

loop_
  _space_group_symop_operation_xyz
  'x, y, z'

loop_
  _atom_site_type_symbol
  _atom_site_label
  _atom_site_symmetry_multiplicity
  _atom_site_fract_x
  _atom_site_fract_y
  _atom_site_fract_z
  _atom_site_occupancy
  Bi  Bi1       1.0  0.66670  0.33330  0.58487  1.0000
  Bi  Bi2       1.0  0.33330  0.66660  0.08487  1.0000
  I   I1        1.0  0.52789  0.47211  0.45325  1.0000
  I   I2        1.0  0.47211  0.94422  0.95325  1.0000
  I   I3        1.0  0.05578  0.52789  0.95325  1.0000
  I   I4        1.0  0.47211  0.52789  0.95325  1.0000
  I   I5        1.0  0.52789  0.05578  0.45325  1.0000
  I   I6        1.0  0.94422  0.47211  0.45325  1.0000
  I   I7        1.0  0.38575  0.19287  0.70306  1.0000
  I   I8        1.0  0.19287  0.80712  0.20306  1.0000
  I   I9        1.0  0.80713  0.61425  0.70306  1.0000
  I   I10       1.0  0.19288  0.38575  0.20306  1.0000
  I   I11       1.0  0.80713  0.19288  0.70306  1.0000
  I   I12       1.0  0.61425  0.80713  0.20306  1.0000
  K   K1        1.0  0.33330  0.66670  0.39270  1.0000
  K   K2        1.0  0.66670  0.33340  0.89270  1.0000
  N   N1        1.0  0.33330  0.66670  0.59530  1.0000
  N   N2        1.0  0.66670  0.33340  0.09530  1.0000
  C   C1        1.0  0.25440  0.50880  0.63140  1.0000
  C   C2        1.0  0.50880  0.25440  0.13140  1.0000
  C   C3        1.0  0.49120  0.74560  0.63140  1.0000
  C   C4        1.0  0.74560  0.25440  0.13140  1.0000
  C   C5        1.0  0.25440  0.74560  0.63140  1.0000
  C   C6        1.0  0.74560  0.49120  0.13140  1.0000
  C   C7        1.0  0.25710  0.51400  0.73720  1.0000
  C   C8        1.0  0.51400  0.25690  0.23720  1.0000
  C   C9        1.0  0.48600  0.74290  0.73720  1.0000
  C   C10       1.0  0.74310  0.25710  0.23720  1.0000
  C   C11       1.0  0.25710  0.74310  0.73720  1.0000
  C   C12       1.0  0.74290  0.48600  0.23720  1.0000
  N   N3        1.0  0.33330  0.66670  0.76630  1.0000
  N   N4        1.0  0.66670  0.33340  0.26630  1.0000
  H   H1        1.0  0.15210  0.45690  0.61080  1.0000
  H   H2        1.0  0.45690  0.30480  0.11080  1.0000
  H   H3        1.0  0.54310  0.84790  0.61080  1.0000
  H   H4        1.0  0.69520  0.15210  0.11080  1.0000
  H   H5        1.0  0.45690  0.15210  0.11080  1.0000
  H   H6        1.0  0.54310  0.69520  0.61080  1.0000
  H   H7        1.0  0.15210  0.69520  0.61080  1.0000
  H   H8        1.0  0.30480  0.84790  0.61080  1.0000
  H   H9        1.0  0.30480  0.45690  0.61080  1.0000
  H   H10       1.0  0.84790  0.54310  0.11080  1.0000
  H   H11       1.0  0.69520  0.54310  0.11080  1.0000
  H   H12       1.0  0.84790  0.30480  0.11080  1.0000
  H   H13       1.0  0.15590  0.46440  0.75960  1.0000
  H   H14       1.0  0.46440  0.30850  0.25960  1.0000
  H   H15       1.0  0.53560  0.84410  0.75960  1.0000
  H   H16       1.0  0.69150  0.15590  0.25960  1.0000
  H   H17       1.0  0.46440  0.15590  0.25960  1.0000
  H   H18       1.0  0.53560  0.69150  0.75960  1.0000
  H   H19       1.0  0.15590  0.69150  0.75960  1.0000
  H   H20       1.0  0.30850  0.84410  0.75960  1.0000
  H   H21       1.0  0.30850  0.46440  0.75960  1.0000
  H   H22       1.0  0.84410  0.53560  0.25960  1.0000
  H   H23       1.0  0.69150  0.53560  0.25960  1.0000
  H   H24       1.0  0.84410  0.30850  0.25960  1.0000
