data_image0
_chemical_formula_structural       Zn8O16N40C24H8C24H8C4H4C8H8
_chemical_formula_sum              "Zn8 O16 N40 C60 H28"
_cell_length_a       17.346
_cell_length_b       17.3127
_cell_length_c       9.5207
_cell_angle_alpha    90
_cell_angle_beta     90
_cell_angle_gamma    90

_space_group_name_H-M_alt    "P 1"
_space_group_IT_number       1

loop_
  _space_group_symop_operation_xyz
  'x, y, z'

loop_
  _atom_site_type_symbol
  _atom_site_label
  _atom_site_symmetry_multiplicity
  _atom_site_fract_x
  _atom_site_fract_y
  _atom_site_fract_z
  _atom_site_occupancy
  Zn  Zn1       1.0  0.69469  0.57848  0.00787  1.0000
  Zn  Zn2       1.0  0.80531  0.42152  0.50787  1.0000
  Zn  Zn3       1.0  0.30531  0.07848  0.99213  1.0000
  Zn  Zn4       1.0  0.19469  0.92152  0.49213  1.0000
  Zn  Zn5       1.0  0.30531  0.42152  0.99213  1.0000
  Zn  Zn6       1.0  0.19469  0.57848  0.49213  1.0000
  Zn  Zn7       1.0  0.69469  0.92152  0.00787  1.0000
  Zn  Zn8       1.0  0.80531  0.07848  0.50787  1.0000
  O   O1        1.0  0.61730  0.65756  0.76023  1.0000
  O   O2        1.0  0.88270  0.34244  0.26023  1.0000
  O   O3        1.0  0.38270  0.15756  0.23977  1.0000
  O   O4        1.0  0.11730  0.84244  0.73977  1.0000
  O   O5        1.0  0.38270  0.34244  0.23977  1.0000
  O   O6        1.0  0.11730  0.65756  0.73977  1.0000
  O   O7        1.0  0.61730  0.84244  0.76023  1.0000
  O   O8        1.0  0.88270  0.15756  0.26023  1.0000
  O   O9        1.0  0.59100  0.57515  0.93221  1.0000
  O   O10       1.0  0.90900  0.42485  0.43221  1.0000
  O   O11       1.0  0.40900  0.07515  0.06779  1.0000
  O   O12       1.0  0.09100  0.92485  0.56779  1.0000
  O   O13       1.0  0.40900  0.42485  0.06779  1.0000
  O   O14       1.0  0.09100  0.57515  0.56779  1.0000
  O   O15       1.0  0.59100  0.92485  0.93221  1.0000
  O   O16       1.0  0.90900  0.07515  0.43221  1.0000
  N   N1        1.0  0.31115  0.49164  0.82576  1.0000
  N   N2        1.0  0.18885  0.50836  0.32576  1.0000
  N   N3        1.0  0.68885  0.99164  0.17424  1.0000
  N   N4        1.0  0.81115  0.00836  0.67424  1.0000
  N   N5        1.0  0.68885  0.50836  0.17424  1.0000
  N   N6        1.0  0.81115  0.49164  0.67424  1.0000
  N   N7        1.0  0.31115  0.00836  0.82576  1.0000
  N   N8        1.0  0.18885  0.99164  0.32576  1.0000
  N   N9        1.0  0.25359  0.49895  0.73458  1.0000
  N   N10       1.0  0.24641  0.50105  0.23458  1.0000
  N   N11       1.0  0.74641  0.99895  0.26542  1.0000
  N   N12       1.0  0.75359  0.00105  0.76542  1.0000
  N   N13       1.0  0.74641  0.50105  0.26542  1.0000
  N   N14       1.0  0.75359  0.49895  0.76542  1.0000
  N   N15       1.0  0.25359  0.00105  0.73458  1.0000
  N   N16       1.0  0.24641  0.99895  0.23458  1.0000
  N   N17       1.0  0.27363  0.54765  0.63273  1.0000
  N   N18       1.0  0.22637  0.45235  0.13273  1.0000
  N   N19       1.0  0.72637  0.04765  0.36727  1.0000
  N   N20       1.0  0.77363  0.95235  0.86727  1.0000
  N   N21       1.0  0.72637  0.45235  0.36727  1.0000
  N   N22       1.0  0.77363  0.54765  0.86727  1.0000
  N   N23       1.0  0.27363  0.95235  0.63273  1.0000
  N   N24       1.0  0.22637  0.04765  0.13273  1.0000
  N   N25       1.0  0.71718  0.68723  0.06823  1.0000
  N   N26       1.0  0.78282  0.31277  0.56823  1.0000
  N   N27       1.0  0.28282  0.18723  0.93177  1.0000
  N   N28       1.0  0.21718  0.81277  0.43177  1.0000
  N   N29       1.0  0.28282  0.31277  0.93177  1.0000
  N   N30       1.0  0.21718  0.68723  0.43177  1.0000
  N   N31       1.0  0.71718  0.81277  0.06823  1.0000
  N   N32       1.0  0.78282  0.18723  0.56823  1.0000
  N   N33       1.0  0.76509  0.71223  0.17100  1.0000
  N   N34       1.0  0.73491  0.28777  0.67100  1.0000
  N   N35       1.0  0.23491  0.21223  0.82900  1.0000
  N   N36       1.0  0.26509  0.78777  0.32900  1.0000
  N   N37       1.0  0.23491  0.28777  0.82900  1.0000
  N   N38       1.0  0.26509  0.71223  0.32900  1.0000
  N   N39       1.0  0.76509  0.78777  0.17100  1.0000
  N   N40       1.0  0.73491  0.21223  0.67100  1.0000
  C   C1        1.0  0.57376  0.61255  0.82060  1.0000
  C   C2        1.0  0.92624  0.38745  0.32060  1.0000
  C   C3        1.0  0.42624  0.11255  0.17940  1.0000
  C   C4        1.0  0.07376  0.88745  0.67940  1.0000
  C   C5        1.0  0.42624  0.38745  0.17940  1.0000
  C   C6        1.0  0.07376  0.61255  0.67940  1.0000
  C   C7        1.0  0.57376  0.88745  0.82060  1.0000
  C   C8        1.0  0.92624  0.11255  0.32060  1.0000
  C   C9        1.0  0.49316  0.59871  0.76620  1.0000
  C   C10       1.0  0.00684  0.40129  0.26620  1.0000
  C   C11       1.0  0.50684  0.09871  0.23380  1.0000
  C   C12       1.0  0.99316  0.90129  0.73380  1.0000
  C   C13       1.0  0.50684  0.40129  0.23380  1.0000
  C   C14       1.0  0.99316  0.59871  0.73380  1.0000
  C   C15       1.0  0.49316  0.90129  0.76620  1.0000
  C   C16       1.0  0.00684  0.09871  0.26620  1.0000
  C   C17       1.0  0.44468  0.54999  0.83810  1.0000
  C   C18       1.0  0.05532  0.45001  0.33810  1.0000
  C   C19       1.0  0.55532  0.04999  0.16190  1.0000
  C   C20       1.0  0.94468  0.95001  0.66190  1.0000
  C   C21       1.0  0.55532  0.45001  0.16190  1.0000
  C   C22       1.0  0.94468  0.54999  0.66190  1.0000
  C   C23       1.0  0.44468  0.95001  0.83810  1.0000
  C   C24       1.0  0.05532  0.04999  0.33810  1.0000
  H   H1        1.0  0.46010  0.52620  0.92110  1.0000
  H   H2        1.0  0.03990  0.47380  0.42110  1.0000
  H   H3        1.0  0.53990  0.02620  0.07890  1.0000
  H   H4        1.0  0.96010  0.97380  0.57890  1.0000
  H   H5        1.0  0.53990  0.47380  0.07890  1.0000
  H   H6        1.0  0.96010  0.52620  0.57890  1.0000
  H   H7        1.0  0.46010  0.97380  0.92110  1.0000
  H   H8        1.0  0.03990  0.02620  0.42110  1.0000
  C   C25       1.0  0.37118  0.53757  0.78150  1.0000
  C   C26       1.0  0.12882  0.46243  0.28150  1.0000
  C   C27       1.0  0.62882  0.03757  0.21850  1.0000
  C   C28       1.0  0.87118  0.96243  0.71850  1.0000
  C   C29       1.0  0.62882  0.46243  0.21850  1.0000
  C   C30       1.0  0.87118  0.53757  0.71850  1.0000
  C   C31       1.0  0.37118  0.96243  0.78150  1.0000
  C   C32       1.0  0.12882  0.03757  0.28150  1.0000
  C   C33       1.0  0.34708  0.57345  0.65810  1.0000
  C   C34       1.0  0.15292  0.42655  0.15810  1.0000
  C   C35       1.0  0.65292  0.07345  0.34190  1.0000
  C   C36       1.0  0.84708  0.92655  0.84190  1.0000
  C   C37       1.0  0.65292  0.42655  0.34190  1.0000
  C   C38       1.0  0.84708  0.57345  0.84190  1.0000
  C   C39       1.0  0.34708  0.92655  0.65810  1.0000
  C   C40       1.0  0.15292  0.07345  0.15810  1.0000
  C   C41       1.0  0.39618  0.62386  0.58550  1.0000
  C   C42       1.0  0.10382  0.37614  0.08550  1.0000
  C   C43       1.0  0.60382  0.12386  0.41450  1.0000
  C   C44       1.0  0.89618  0.87614  0.91450  1.0000
  C   C45       1.0  0.60382  0.37614  0.41450  1.0000
  C   C46       1.0  0.89618  0.62386  0.91450  1.0000
  C   C47       1.0  0.39618  0.87614  0.58550  1.0000
  C   C48       1.0  0.10382  0.12386  0.08550  1.0000
  H   H9        1.0  0.38070  0.64830  0.50320  1.0000
  H   H10       1.0  0.11930  0.35170  0.00320  1.0000
  H   H11       1.0  0.61930  0.14830  0.49680  1.0000
  H   H12       1.0  0.88070  0.85170  0.99680  1.0000
  H   H13       1.0  0.61930  0.35170  0.49680  1.0000
  H   H14       1.0  0.88070  0.64830  0.99680  1.0000
  H   H15       1.0  0.38070  0.85170  0.50320  1.0000
  H   H16       1.0  0.11930  0.14830  0.00320  1.0000
  C   C49       1.0  0.68973  0.75000  0.00850  1.0000
  C   C50       1.0  0.81027  0.25000  0.50850  1.0000
  C   C51       1.0  0.31027  0.25000  0.99150  1.0000
  C   C52       1.0  0.18973  0.75000  0.49150  1.0000
  H   H17       1.0  0.65530  0.75000  0.93360  1.0000
  H   H18       1.0  0.84470  0.25000  0.43360  1.0000
  H   H19       1.0  0.34470  0.25000  0.06640  1.0000
  H   H20       1.0  0.15530  0.75000  0.56640  1.0000
  C   C53       1.0  0.46842  0.63556  0.64150  1.0000
  C   C54       1.0  0.03158  0.36444  0.14150  1.0000
  C   C55       1.0  0.53158  0.13556  0.35850  1.0000
  C   C56       1.0  0.96842  0.86444  0.85850  1.0000
  C   C57       1.0  0.53158  0.36444  0.35850  1.0000
  C   C58       1.0  0.96842  0.63556  0.85850  1.0000
  C   C59       1.0  0.46842  0.86444  0.64150  1.0000
  C   C60       1.0  0.03158  0.13556  0.14150  1.0000
  H   H21       1.0  0.50210  0.66890  0.59580  1.0000
  H   H22       1.0  0.99790  0.33110  0.09580  1.0000
  H   H23       1.0  0.49790  0.16890  0.40420  1.0000
  H   H24       1.0  0.00210  0.83110  0.90420  1.0000
  H   H25       1.0  0.49790  0.33110  0.40420  1.0000
  H   H26       1.0  0.00210  0.66890  0.90420  1.0000
  H   H27       1.0  0.50210  0.83110  0.59580  1.0000
  H   H28       1.0  0.99790  0.16890  0.09580  1.0000
