data_image0
_chemical_formula_structural       Mo8C2H2C2H2C2H2C4H2C2H2N4O26
_chemical_formula_sum              "Mo8 C12 H10 N4 O26"
_cell_length_a       10.359
_cell_length_b       11.786
_cell_length_c       12.513
_cell_angle_alpha    65.003
_cell_angle_beta     70.155
_cell_angle_gamma    83.231

_space_group_name_H-M_alt    "P 1"
_space_group_IT_number       1

loop_
  _space_group_symop_operation_xyz
  'x, y, z'

loop_
  _atom_site_type_symbol
  _atom_site_label
  _atom_site_symmetry_multiplicity
  _atom_site_fract_x
  _atom_site_fract_y
  _atom_site_fract_z
  _atom_site_occupancy
  Mo  Mo1       1.0  0.16466  0.49446  0.49820  1.0000
  Mo  Mo2       1.0  0.83534  0.50554  0.50180  1.0000
  Mo  Mo3       1.0  0.00148  0.75244  0.48832  1.0000
  Mo  Mo4       1.0  0.99852  0.24756  0.51168  1.0000
  Mo  Mo5       1.0  0.28121  0.71537  0.20559  1.0000
  Mo  Mo6       1.0  0.71879  0.28463  0.79441  1.0000
  Mo  Mo7       1.0  0.16993  0.45407  0.23685  1.0000
  Mo  Mo8       1.0  0.83007  0.54593  0.76315  1.0000
  C   C1        1.0  0.38480  0.83920  0.34410  1.0000
  C   C2        1.0  0.61520  0.16080  0.65590  1.0000
  H   H1        1.0  0.32050  0.90120  0.33010  1.0000
  H   H2        1.0  0.67950  0.09880  0.66990  1.0000
  C   C3        1.0  0.50580  0.67940  0.34440  1.0000
  C   C4        1.0  0.49420  0.32060  0.65560  1.0000
  H   H3        1.0  0.54100  0.60920  0.32950  1.0000
  H   H4        1.0  0.45900  0.39080  0.67050  1.0000
  C   C5        1.0  0.54990  0.72640  0.40730  1.0000
  C   C6        1.0  0.45010  0.27360  0.59270  1.0000
  H   H5        1.0  0.61860  0.69600  0.44380  1.0000
  H   H6        1.0  0.38140  0.30400  0.55620  1.0000
  C   C7        1.0  0.48530  0.91610  0.45490  1.0000
  C   C8        1.0  0.51470  0.08390  0.54510  1.0000
  C   C9        1.0  0.37810  0.99230  0.48090  1.0000
  C   C10       1.0  0.62190  0.00770  0.51910  1.0000
  H   H7        1.0  0.29610  0.98670  0.46820  1.0000
  H   H8        1.0  0.70390  0.01330  0.53180  1.0000
  C   C11       1.0  0.60650  0.92360  0.47430  1.0000
  C   C12       1.0  0.39350  0.07640  0.52570  1.0000
  H   H9        1.0  0.67800  0.87170  0.45700  1.0000
  H   H10       1.0  0.32200  0.12830  0.54300  1.0000
  N   N1        1.0  0.40270  0.74870  0.30530  1.0000
  N   N2        1.0  0.59730  0.25130  0.69470  1.0000
  N   N3        1.0  0.47060  0.83030  0.40610  1.0000
  N   N4        1.0  0.52940  0.16970  0.59390  1.0000
  O   O1        1.0  0.27060  0.52290  0.56270  1.0000
  O   O2        1.0  0.72940  0.47710  0.43730  1.0000
  O   O3        1.0  0.13580  0.68480  0.38270  1.0000
  O   O4        1.0  0.86420  0.31520  0.61730  1.0000
  O   O5        1.0  0.14140  0.33100  0.57160  1.0000
  O   O6        1.0  0.85860  0.66900  0.42840  1.0000
  O   O7        1.0  0.27920  0.51390  0.33720  1.0000
  O   O8        1.0  0.72080  0.48610  0.66280  1.0000
  O   O9        1.0  0.24270  0.86950  0.14720  1.0000
  O   O10       1.0  0.75730  0.13050  0.85280  1.0000
  O   O11       1.0  0.43600  0.70030  0.10490  1.0000
  O   O12       1.0  0.56400  0.29970  0.89510  1.0000
  O   O13       1.0  0.15980  0.63730  0.17300  1.0000
  O   O14       1.0  0.84020  0.36270  0.82700  1.0000
  O   O15       1.0  0.96710  0.89530  0.38800  1.0000
  O   O16       1.0  0.03290  0.10470  0.61200  1.0000
  O   O17       1.0  0.10580  0.78610  0.55130  1.0000
  O   O18       1.0  0.89420  0.21390  0.44870  1.0000
  O   O19       1.0  0.83770  0.70980  0.63320  1.0000
  O   O20       1.0  0.16230  0.29020  0.36680  1.0000
  O   O21       1.0  0.01010  0.46050  0.41000  1.0000
  O   O22       1.0  0.98990  0.53950  0.59000  1.0000
  O   O23       1.0  0.04560  0.43920  0.18070  1.0000
  O   O24       1.0  0.95440  0.56080  0.81930  1.0000
  O   O25       1.0  0.31940  0.44130  0.13240  1.0000
  O   O26       1.0  0.68060  0.55870  0.86760  1.0000
