data_image0
_chemical_formula_structural       U7O52N2C6H2C2H2C2H2C2H2C10H2C2H2C2H2C2H2C10H2C2H2C2H2C2H2C10H2C2H2C2H2C2H2C4
_chemical_formula_sum              "U7 O52 N2 C64 H32"
_cell_length_a       9.7965
_cell_length_b       12.9433
_cell_length_c       21.0165
_cell_angle_alpha    91.9867
_cell_angle_beta     95.723
_cell_angle_gamma    110.367

_space_group_name_H-M_alt    "P 1"
_space_group_IT_number       1

loop_
  _space_group_symop_operation_xyz
  'x, y, z'

loop_
  _atom_site_type_symbol
  _atom_site_label
  _atom_site_symmetry_multiplicity
  _atom_site_fract_x
  _atom_site_fract_y
  _atom_site_fract_z
  _atom_site_occupancy
  U   U1        1.0  0.53712  0.37919  0.40666  1.0000
  U   U2        1.0  0.46288  0.62081  0.59334  1.0000
  U   U3        1.0  0.80360  0.51655  0.19619  1.0000
  U   U4        1.0  0.19640  0.48345  0.80381  1.0000
  U   U5        1.0  0.00185  0.80277  0.00971  1.0000
  U   U6        1.0  0.99815  0.19723  0.99029  1.0000
  U   U7        1.0  0.50000  0.00000  0.50000  1.0000
  O   O1        1.0  0.42300  0.39200  0.33840  1.0000
  O   O2        1.0  0.57700  0.60800  0.66160  1.0000
  O   O3        1.0  0.65190  0.36930  0.47480  1.0000
  O   O4        1.0  0.34810  0.63070  0.52520  1.0000
  O   O5        1.0  0.64060  0.49960  0.14660  1.0000
  O   O6        1.0  0.35940  0.50040  0.85340  1.0000
  O   O7        1.0  0.96700  0.53910  0.24770  1.0000
  O   O8        1.0  0.03300  0.46090  0.75230  1.0000
  O   O9        1.0  0.84700  0.79800  0.95730  1.0000
  O   O10       1.0  0.15300  0.20200  0.04270  1.0000
  O   O11       1.0  0.15800  0.81100  0.06230  1.0000
  O   O12       1.0  0.84200  0.18900  0.93770  1.0000
  O   O13       1.0  0.52830  0.88040  0.47000  1.0000
  O   O14       1.0  0.47170  0.11960  0.53000  1.0000
  O   O15       1.0  0.64820  0.29250  0.33750  1.0000
  O   O16       1.0  0.35180  0.70750  0.66250  1.0000
  O   O17       1.0  0.65900  0.35420  0.24020  1.0000
  O   O18       1.0  0.34100  0.64580  0.75980  1.0000
  O   O19       1.0  0.40600  0.18770  0.39470  1.0000
  O   O20       1.0  0.59400  0.81230  0.60530  1.0000
  O   O21       1.0  0.45730  0.03350  0.38760  1.0000
  O   O22       1.0  0.54270  0.96650  0.61240  1.0000
  O   O23       1.0  0.74620  0.51870  0.37690  1.0000
  O   O24       1.0  0.25380  0.48130  0.62310  1.0000
  O   O25       1.0  0.71500  0.58730  0.28340  1.0000
  O   O26       1.0  0.28500  0.41270  0.71660  1.0000
  O   O27       1.0  0.54370  0.56330  0.43530  1.0000
  O   O28       1.0  0.45630  0.43670  0.56470  1.0000
  O   O29       1.0  0.65610  0.65430  0.52910  1.0000
  O   O30       1.0  0.34390  0.34570  0.47090  1.0000
  O   O31       1.0  0.85190  0.35590  0.15680  1.0000
  O   O32       1.0  0.14810  0.64410  0.84320  1.0000
  O   O33       1.0  0.92260  0.26320  0.08550  1.0000
  O   O34       1.0  0.07740  0.73680  0.91450  1.0000
  O   O35       1.0  0.92950  0.55230  0.10411  1.0000
  O   O36       1.0  0.07050  0.44770  0.89589  1.0000
  O   O37       1.0  0.91900  0.60510  0.00460  1.0000
  O   O38       1.0  0.08100  0.39490  0.99540  1.0000
  O   O39       1.0  0.87060  0.70920  0.18890  1.0000
  O   O40       1.0  0.12940  0.29080  0.81110  1.0000
  O   O41       1.0  0.83540  0.74330  0.08710  1.0000
  O   O42       1.0  0.16460  0.25670  0.91290  1.0000
  O   O43       1.0  0.99220  0.95290  0.07345  1.0000
  O   O44       1.0  0.00780  0.04710  0.92655  1.0000
  O   O45       1.0  0.84680  0.04460  0.04000  1.0000
  O   O46       1.0  0.15320  0.95540  0.96000  1.0000
  O   O47       1.0  0.71710  0.12610  0.45330  1.0000
  O   O48       1.0  0.28290  0.87390  0.54670  1.0000
  O   O49       1.0  0.75850  0.08820  0.55070  1.0000
  O   O50       1.0  0.24150  0.91180  0.44930  1.0000
  O   O51       1.0  0.92590  0.21870  0.51010  1.0000
  O   O52       1.0  0.07410  0.78130  0.48990  1.0000
  N   N1        1.0  0.80490  0.14660  0.50450  1.0000
  N   N2        1.0  0.19510  0.85340  0.49550  1.0000
  C   C1        1.0  0.47410  0.18540  0.25170  1.0000
  C   C2        1.0  0.52590  0.81460  0.74830  1.0000
  C   C3        1.0  0.40090  0.10360  0.29070  1.0000
  C   C4        1.0  0.59910  0.89640  0.70930  1.0000
  C   C5        1.0  0.29000  0.00820  0.26270  1.0000
  C   C6        1.0  0.71000  0.99180  0.73730  1.0000
  H   H1        1.0  0.24226  0.95133  0.28879  1.0000
  H   H2        1.0  0.75774  0.04867  0.71121  1.0000
  C   C7        1.0  0.24860  0.99550  0.19680  1.0000
  C   C8        1.0  0.75140  0.00450  0.80320  1.0000
  H   H3        1.0  0.17197  0.93050  0.17833  1.0000
  H   H4        1.0  0.82803  0.06950  0.82167  1.0000
  C   C9        1.0  0.31730  0.07570  0.15890  1.0000
  C   C10       1.0  0.68270  0.92430  0.84110  1.0000
  H   H5        1.0  0.28739  0.06742  0.11398  1.0000
  H   H6        1.0  0.71261  0.93258  0.88602  1.0000
  C   C11       1.0  0.43050  0.16940  0.18550  1.0000
  C   C12       1.0  0.56950  0.83060  0.81450  1.0000
  H   H7        1.0  0.47974  0.22399  0.15842  1.0000
  H   H8        1.0  0.52026  0.77601  0.84158  1.0000
  C   C13       1.0  0.60400  0.28440  0.27840  1.0000
  C   C14       1.0  0.39600  0.71560  0.72160  1.0000
  C   C15       1.0  0.42710  0.11040  0.36290  1.0000
  C   C16       1.0  0.57290  0.88960  0.63710  1.0000
  C   C17       1.0  0.79460  0.71080  0.37590  1.0000
  C   C18       1.0  0.20540  0.28920  0.62410  1.0000
  C   C19       1.0  0.75090  0.73120  0.43550  1.0000
  C   C20       1.0  0.24910  0.26880  0.56450  1.0000
  C   C21       1.0  0.80300  0.83850  0.46340  1.0000
  C   C22       1.0  0.19700  0.16150  0.53660  1.0000
  H   H9        1.0  0.77683  0.85292  0.50421  1.0000
  H   H10       1.0  0.22317  0.14708  0.49579  1.0000
  C   C23       1.0  0.89280  0.92510  0.43250  1.0000
  C   C24       1.0  0.10720  0.07490  0.56750  1.0000
  H   H11       1.0  0.92304  0.99871  0.45114  1.0000
  H   H12       1.0  0.07696  0.00129  0.54886  1.0000
  C   C25       1.0  0.93800  0.90440  0.37500  1.0000
  C   C26       1.0  0.06200  0.09560  0.62500  1.0000
  H   H13       1.0  0.00209  0.96327  0.35459  1.0000
  H   H14       1.0  0.99791  0.03673  0.64541  1.0000
  C   C27       1.0  0.89010  0.79830  0.34710  1.0000
  C   C28       1.0  0.10990  0.20170  0.65290  1.0000
  H   H15       1.0  0.92254  0.78428  0.30772  1.0000
  H   H16       1.0  0.07746  0.21572  0.69228  1.0000
  C   C29       1.0  0.74770  0.59760  0.34340  1.0000
  C   C30       1.0  0.25230  0.40240  0.65660  1.0000
  C   C31       1.0  0.64390  0.64300  0.46860  1.0000
  C   C32       1.0  0.35610  0.35700  0.53140  1.0000
  C   C33       1.0  0.73510  0.33240  0.04970  1.0000
  C   C34       1.0  0.26490  0.66760  0.95030  1.0000
  C   C35       1.0  0.74880  0.43290  0.02380  1.0000
  C   C36       1.0  0.25120  0.56710  0.97620  1.0000
  C   C37       1.0  0.64090  0.43960  0.97770  1.0000
  C   C38       1.0  0.35910  0.56040  0.02230  1.0000
  H   H17       1.0  0.65231  0.50760  0.95926  1.0000
  H   H18       1.0  0.34769  0.49240  0.04074  1.0000
  C   C39       1.0  0.51710  0.34780  0.95860  1.0000
  C   C40       1.0  0.48290  0.65220  0.04140  1.0000
  H   H19       1.0  0.44132  0.35377  0.92866  1.0000
  H   H20       1.0  0.55868  0.64623  0.07134  1.0000
  C   C41       1.0  0.50360  0.24720  0.98310  1.0000
  C   C42       1.0  0.49640  0.75280  0.01690  1.0000
  H   H21       1.0  0.41936  0.18381  0.96935  1.0000
  H   H22       1.0  0.58064  0.81619  0.03065  1.0000
  C   C43       1.0  0.61280  0.23880  0.02770  1.0000
  C   C44       1.0  0.38720  0.76120  0.97230  1.0000
  H   H23       1.0  0.60450  0.16917  0.04330  1.0000
  H   H24       1.0  0.39550  0.83083  0.95670  1.0000
  C   C45       1.0  0.84470  0.31720  0.09940  1.0000
  C   C46       1.0  0.15530  0.68280  0.90060  1.0000
  C   C47       1.0  0.87430  0.53660  0.04580  1.0000
  C   C48       1.0  0.12570  0.46340  0.95420  1.0000
  C   C49       1.0  0.78590  0.85610  0.16700  1.0000
  C   C50       1.0  0.21410  0.14390  0.83300  1.0000
  C   C51       1.0  0.79640  0.94900  0.13310  1.0000
  C   C52       1.0  0.20360  0.05100  0.86690  1.0000
  C   C53       1.0  0.72870  0.02040  0.15370  1.0000
  C   C54       1.0  0.27130  0.97960  0.84630  1.0000
  H   H25       1.0  0.73436  0.08346  0.13075  1.0000
  H   H26       1.0  0.26564  0.91654  0.86925  1.0000
  C   C55       1.0  0.65310  0.00110  0.20710  1.0000
  C   C56       1.0  0.34690  0.99890  0.79290  1.0000
  H   H27       1.0  0.60504  0.04940  0.21974  1.0000
  H   H28       1.0  0.39496  0.95060  0.78026  1.0000
  C   C57       1.0  0.64810  0.91170  0.24180  1.0000
  C   C58       1.0  0.35190  0.08830  0.75820  1.0000
  H   H29       1.0  0.60249  0.90098  0.28006  1.0000
  H   H30       1.0  0.39751  0.09902  0.71994  1.0000
  C   C59       1.0  0.70950  0.83790  0.22050  1.0000
  C   C60       1.0  0.29050  0.16210  0.77950  1.0000
  H   H31       1.0  0.69960  0.77342  0.24273  1.0000
  H   H32       1.0  0.30040  0.22658  0.75727  1.0000
  C   C61       1.0  0.83670  0.76520  0.14570  1.0000
  C   C62       1.0  0.16330  0.23480  0.85430  1.0000
  C   C63       1.0  0.88440  0.98270  0.07810  1.0000
  C   C64       1.0  0.11560  0.01730  0.92190  1.0000
