data_image0
_chemical_formula_structural       U6O38C6H2C2H2C2H2C2H2C10H2C2H2C2H2C2H2C10H2C2H2C2H2C2H2C4
_chemical_formula_sum              "U6 O38 C48 H24"
_cell_length_a       13.4424
_cell_length_b       16.6043
_cell_length_c       16.6449
_cell_angle_alpha    118.798
_cell_angle_beta     90.3785
_cell_angle_gamma    91.7473

_space_group_name_H-M_alt    "P 1"
_space_group_IT_number       1

loop_
  _space_group_symop_operation_xyz
  'x, y, z'

loop_
  _atom_site_type_symbol
  _atom_site_label
  _atom_site_symmetry_multiplicity
  _atom_site_fract_x
  _atom_site_fract_y
  _atom_site_fract_z
  _atom_site_occupancy
  U   U1        1.0  0.43542  0.91005  0.59132  1.0000
  U   U2        1.0  0.56458  0.08995  0.40868  1.0000
  U   U3        1.0  0.43985  0.91099  0.82432  1.0000
  U   U4        1.0  0.56015  0.08901  0.17568  1.0000
  U   U5        1.0  0.43993  0.68250  0.59792  1.0000
  U   U6        1.0  0.56007  0.31750  0.40208  1.0000
  O   O1        1.0  0.30340  0.91933  0.59320  1.0000
  O   O2        1.0  0.69660  0.08067  0.40680  1.0000
  O   O3        1.0  0.56710  0.90532  0.58750  1.0000
  O   O4        1.0  0.43290  0.09468  0.41250  1.0000
  O   O5        1.0  0.30760  0.90129  0.82977  1.0000
  O   O6        1.0  0.69240  0.09871  0.17023  1.0000
  O   O7        1.0  0.57150  0.92264  0.82640  1.0000
  O   O8        1.0  0.42850  0.07736  0.17360  1.0000
  O   O9        1.0  0.30760  0.66486  0.59330  1.0000
  O   O10       1.0  0.69240  0.33514  0.40670  1.0000
  O   O11       1.0  0.57120  0.69372  0.59630  1.0000
  O   O12       1.0  0.42880  0.30628  0.40370  1.0000
  O   O13       1.0  0.44080  0.01611  0.75776  1.0000
  O   O14       1.0  0.55920  0.98389  0.24224  1.0000
  O   O15       1.0  0.40350  0.16459  0.83340  1.0000
  O   O16       1.0  0.59650  0.83541  0.16660  1.0000
  O   O17       1.0  0.46140  0.06219  0.61658  1.0000
  O   O18       1.0  0.53860  0.93781  0.38342  1.0000
  O   O19       1.0  0.58150  0.11578  0.56175  1.0000
  O   O20       1.0  0.41850  0.88422  0.43825  1.0000
  O   O21       1.0  0.46010  0.88063  0.94803  1.0000
  O   O22       1.0  0.53990  0.11937  0.05197  1.0000
  O   O23       1.0  0.58260  0.93751  0.05328  1.0000
  O   O24       1.0  0.41740  0.06249  0.94672  1.0000
  O   O25       1.0  0.44950  0.74458  0.76459  1.0000
  O   O26       1.0  0.55050  0.25542  0.23541  1.0000
  O   O27       1.0  0.38310  0.66250  0.82650  1.0000
  O   O28       1.0  0.61690  0.33750  0.17350  1.0000
  O   O29       1.0  0.54910  0.44436  0.37420  1.0000
  O   O30       1.0  0.45090  0.55564  0.62580  1.0000
  O   O31       1.0  0.44610  0.55727  0.44724  1.0000
  O   O32       1.0  0.55390  0.44273  0.55276  1.0000
  O   O33       1.0  0.42740  0.74270  0.48964  1.0000
  O   O34       1.0  0.57260  0.25730  0.51036  1.0000
  O   O35       1.0  0.37550  0.67140  0.34300  1.0000
  O   O36       1.0  0.62450  0.32860  0.65700  1.0000
  O   O37       1.0  0.42810  0.83433  0.67116  1.0000
  O   O38       1.0  0.57190  0.16567  0.32884  1.0000
  C   C1        1.0  0.56870  0.13190  0.78660  1.0000
  C   C2        1.0  0.43130  0.86810  0.21340  1.0000
  C   C3        1.0  0.60690  0.13400  0.70970  1.0000
  C   C4        1.0  0.39310  0.86600  0.29030  1.0000
  C   C5        1.0  0.70320  0.16910  0.71320  1.0000
  C   C6        1.0  0.29680  0.83090  0.28680  1.0000
  H   H1        1.0  0.72819  0.17172  0.66124  1.0000
  H   H2        1.0  0.27181  0.82828  0.33876  1.0000
  C   C7        1.0  0.76310  0.20030  0.79130  1.0000
  C   C8        1.0  0.23690  0.79970  0.20870  1.0000
  H   H3        1.0  0.82919  0.22306  0.79280  1.0000
  H   H4        1.0  0.17081  0.77694  0.20720  1.0000
  C   C9        1.0  0.72480  0.19770  0.86770  1.0000
  C   C10       1.0  0.27520  0.80230  0.13230  1.0000
  H   H5        1.0  0.76522  0.21895  0.92165  1.0000
  H   H6        1.0  0.23478  0.78105  0.07835  1.0000
  C   C11       1.0  0.62910  0.16490  0.86600  1.0000
  C   C12       1.0  0.37090  0.83510  0.13400  1.0000
  H   H7        1.0  0.60377  0.16459  0.91902  1.0000
  H   H8        1.0  0.39623  0.83541  0.08098  1.0000
  C   C13       1.0  0.46280  0.10410  0.79260  1.0000
  C   C14       1.0  0.53720  0.89590  0.20740  1.0000
  C   C15       1.0  0.54580  0.10140  0.62330  1.0000
  C   C16       1.0  0.45420  0.89860  0.37670  1.0000
  C   C17       1.0  0.59670  0.78610  0.93350  1.0000
  C   C18       1.0  0.40330  0.21390  0.06650  1.0000
  C   C19       1.0  0.55320  0.70760  0.85860  1.0000
  C   C20       1.0  0.44680  0.29240  0.14140  1.0000
  C   C21       1.0  0.60390  0.62620  0.82210  1.0000
  C   C22       1.0  0.39610  0.37380  0.17790  1.0000
  H   H9        1.0  0.57386  0.57200  0.77325  1.0000
  H   H10       1.0  0.42614  0.42800  0.22675  1.0000
  C   C23       1.0  0.69740  0.62240  0.85530  1.0000
  C   C24       1.0  0.30260  0.37760  0.14470  1.0000
  H   H11       1.0  0.73180  0.56663  0.82806  1.0000
  H   H12       1.0  0.26820  0.43337  0.17194  1.0000
  C   C25       1.0  0.74040  0.70040  0.92840  1.0000
  C   C26       1.0  0.25960  0.29960  0.07160  1.0000
  H   H13       1.0  0.80461  0.69837  0.95151  1.0000
  H   H14       1.0  0.19539  0.30163  0.04849  1.0000
  C   C27       1.0  0.68960  0.78080  0.96740  1.0000
  C   C28       1.0  0.31040  0.21920  0.03260  1.0000
  H   H15       1.0  0.71860  0.83367  0.01856  1.0000
  H   H16       1.0  0.28140  0.16633  0.98144  1.0000
  C   C29       1.0  0.54270  0.87460  0.98120  1.0000
  C   C30       1.0  0.45730  0.12540  0.01880  1.0000
  C   C31       1.0  0.45300  0.70510  0.81620  1.0000
  C   C32       1.0  0.54700  0.29490  0.18380  1.0000
  C   C33       1.0  0.58230  0.58080  0.36940  1.0000
  C   C34       1.0  0.41770  0.41920  0.63060  1.0000
  C   C35       1.0  0.54520  0.66000  0.37230  1.0000
  C   C36       1.0  0.45480  0.34000  0.62770  1.0000
  C   C37       1.0  0.60480  0.70990  0.34310  1.0000
  C   C38       1.0  0.39520  0.29010  0.65690  1.0000
  H   H17       1.0  0.58027  0.76351  0.34424  1.0000
  H   H18       1.0  0.41973  0.23649  0.65576  1.0000
  C   C39       1.0  0.69980  0.68270  0.31250  1.0000
  C   C40       1.0  0.30020  0.31730  0.68750  1.0000
  H   H19       1.0  0.74045  0.71838  0.29395  1.0000
  H   H20       1.0  0.25955  0.28162  0.70605  1.0000
  C   C41       1.0  0.73590  0.60360  0.30860  1.0000
  C   C42       1.0  0.26410  0.39640  0.69140  1.0000
  H   H21       1.0  0.80104  0.58489  0.28741  1.0000
  H   H22       1.0  0.19896  0.41511  0.71259  1.0000
  C   C43       1.0  0.67690  0.55290  0.33550  1.0000
  C   C44       1.0  0.32310  0.44710  0.66450  1.0000
  H   H23       1.0  0.70076  0.49766  0.33114  1.0000
  H   H24       1.0  0.29924  0.50234  0.66886  1.0000
  C   C45       1.0  0.52190  0.52400  0.39940  1.0000
  C   C46       1.0  0.47810  0.47600  0.60060  1.0000
  C   C47       1.0  0.44000  0.69190  0.40260  1.0000
  C   C48       1.0  0.56000  0.30810  0.59740  1.0000
