data_image0
_chemical_formula_structural       C2H2C2H2C2H2C2H2C6H2C2H2C2H2C6H2C2H2C2H2C2H2C4H2C4H2C2H2C4H2C4H2C2H2C4H2C2H2C4H2C4H2C2H2C4H2Cu2N6O24P8H10
_chemical_formula_sum              "C70 H56 Cu2 N6 O24 P8"
_cell_length_a       12.3266
_cell_length_b       17.714
_cell_length_c       14.3841
_cell_angle_alpha    90
_cell_angle_beta     110.328
_cell_angle_gamma    90

_space_group_name_H-M_alt    "P 1"
_space_group_IT_number       1

loop_
  _space_group_symop_operation_xyz
  'x, y, z'

loop_
  _atom_site_type_symbol
  _atom_site_label
  _atom_site_symmetry_multiplicity
  _atom_site_fract_x
  _atom_site_fract_y
  _atom_site_fract_z
  _atom_site_occupancy
  C   C1        1.0  0.14520  0.66050  0.29460  1.0000
  C   C2        1.0  0.85480  0.16050  0.70540  1.0000
  H   H1        1.0  0.13850  0.71280  0.29250  1.0000
  H   H2        1.0  0.86150  0.21280  0.70750  1.0000
  C   C3        1.0  0.04650  0.61730  0.25290  1.0000
  C   C4        1.0  0.95350  0.11730  0.74710  1.0000
  H   H3        1.0  0.97470  0.64000  0.22310  1.0000
  H   H4        1.0  0.02530  0.14000  0.77690  1.0000
  C   C5        1.0  0.05740  0.54110  0.25650  1.0000
  C   C6        1.0  0.94260  0.04110  0.74350  1.0000
  H   H5        1.0  0.99230  0.51090  0.22910  1.0000
  H   H6        1.0  0.00770  0.01090  0.77090  1.0000
  C   C7        1.0  0.16290  0.50840  0.29990  1.0000
  C   C8        1.0  0.83710  0.00840  0.70010  1.0000
  H   H7        1.0  0.17010  0.45610  0.30270  1.0000
  H   H8        1.0  0.82990  0.95610  0.69730  1.0000
  C   C9        1.0  0.25860  0.55360  0.33980  1.0000
  C   C10       1.0  0.74140  0.05360  0.66020  1.0000
  C   C11       1.0  0.37840  0.52670  0.38800  1.0000
  C   C12       1.0  0.62160  0.02670  0.61200  1.0000
  C   C13       1.0  0.41520  0.45160  0.39280  1.0000
  C   C14       1.0  0.58480  0.95160  0.60720  1.0000
  H   H9        1.0  0.36310  0.41260  0.36600  1.0000
  H   H10       1.0  0.63690  0.91260  0.63400  1.0000
  C   C15       1.0  0.53260  0.43750  0.43940  1.0000
  C   C16       1.0  0.46740  0.93750  0.56060  1.0000
  H   H11       1.0  0.55980  0.38820  0.44500  1.0000
  H   H12       1.0  0.44020  0.88820  0.55500  1.0000
  C   C17       1.0  0.60900  0.49570  0.47720  1.0000
  C   C18       1.0  0.39100  0.99570  0.52280  1.0000
  H   H13       1.0  0.68760  0.48610  0.50800  1.0000
  H   H14       1.0  0.31240  0.98610  0.49200  1.0000
  C   C19       1.0  0.56720  0.56880  0.46850  1.0000
  C   C20       1.0  0.43280  0.06880  0.53150  1.0000
  C   C21       1.0  0.63390  0.63830  0.50070  1.0000
  C   C22       1.0  0.36610  0.13830  0.49930  1.0000
  C   C23       1.0  0.75170  0.64190  0.55390  1.0000
  C   C24       1.0  0.24830  0.14190  0.44610  1.0000
  H   H15       1.0  0.79520  0.59780  0.56950  1.0000
  H   H16       1.0  0.20480  0.09780  0.43050  1.0000
  C   C25       1.0  0.80350  0.71000  0.58350  1.0000
  C   C26       1.0  0.19650  0.21000  0.41650  1.0000
  H   H17       1.0  0.88230  0.71270  0.61940  1.0000
  H   H18       1.0  0.11770  0.21270  0.38060  1.0000
  C   C27       1.0  0.73810  0.77510  0.55960  1.0000
  C   C28       1.0  0.26190  0.27510  0.44040  1.0000
  H   H19       1.0  0.77150  0.82210  0.58020  1.0000
  H   H20       1.0  0.22850  0.32210  0.41980  1.0000
  C   C29       1.0  0.62180  0.76880  0.50460  1.0000
  C   C30       1.0  0.37820  0.26880  0.49540  1.0000
  H   H21       1.0  0.57800  0.81260  0.48610  1.0000
  H   H22       1.0  0.42200  0.31260  0.51390  1.0000
  C   C31       1.0  0.29400  0.89210  0.20360  1.0000
  C   C32       1.0  0.70600  0.39210  0.79640  1.0000
  C   C33       1.0  0.19490  0.90060  0.12240  1.0000
  C   C34       1.0  0.80510  0.40060  0.87760  1.0000
  H   H23       1.0  0.16210  0.85880  0.08360  1.0000
  H   H24       1.0  0.83790  0.35880  0.91640  1.0000
  C   C35       1.0  0.14210  0.97280  0.09690  1.0000
  C   C36       1.0  0.85790  0.47280  0.90310  1.0000
  C   C37       1.0  0.03700  0.98300  0.01670  1.0000
  C   C38       1.0  0.96300  0.48300  0.98330  1.0000
  H   H25       1.0  0.00150  0.94180  0.97800  1.0000
  H   H26       1.0  0.99850  0.44180  0.02200  1.0000
  C   C39       1.0  0.98710  0.05260  0.99580  1.0000
  C   C40       1.0  0.01290  0.55260  0.00420  1.0000
  H   H27       1.0  0.91770  0.05830  0.94310  1.0000
  H   H28       1.0  0.08230  0.55830  0.05690  1.0000
  C   C41       1.0  0.03970  0.11650  0.05330  1.0000
  C   C42       1.0  0.96030  0.61650  0.94670  1.0000
  C   C43       1.0  0.14020  0.10740  0.13190  1.0000
  C   C44       1.0  0.85980  0.60740  0.86810  1.0000
  H   H29       1.0  0.17420  0.14900  0.17040  1.0000
  H   H30       1.0  0.82580  0.64900  0.82960  1.0000
  C   C45       1.0  0.19400  0.03560  0.15600  1.0000
  C   C46       1.0  0.80600  0.53560  0.84400  1.0000
  C   C47       1.0  0.29700  0.02540  0.23870  1.0000
  C   C48       1.0  0.70300  0.52540  0.76130  1.0000
  H   H31       1.0  0.33240  0.06660  0.27760  1.0000
  H   H32       1.0  0.66760  0.56660  0.72240  1.0000
  C   C49       1.0  0.34390  0.95540  0.26130  1.0000
  C   C50       1.0  0.65610  0.45540  0.73870  1.0000
  H   H33       1.0  0.41080  0.94930  0.31630  1.0000
  H   H34       1.0  0.58920  0.44930  0.68370  1.0000
  C   C51       1.0  0.30720  0.60280  0.60420  1.0000
  C   C52       1.0  0.69280  0.10280  0.39580  1.0000
  C   C53       1.0  0.36490  0.53430  0.63500  1.0000
  C   C54       1.0  0.63510  0.03430  0.36500  1.0000
  H   H35       1.0  0.44460  0.53430  0.66770  1.0000
  H   H36       1.0  0.55540  0.03430  0.33230  1.0000
  C   C55       1.0  0.30560  0.46730  0.61790  1.0000
  C   C56       1.0  0.69440  0.96730  0.38210  1.0000
  H   H37       1.0  0.34590  0.42240  0.63880  1.0000
  H   H38       1.0  0.65410  0.92240  0.36120  1.0000
  C   C57       1.0  0.18500  0.46520  0.56940  1.0000
  C   C58       1.0  0.81500  0.96520  0.43060  1.0000
  C   C59       1.0  0.11880  0.39750  0.55320  1.0000
  C   C60       1.0  0.88120  0.89750  0.44680  1.0000
  H   H39       1.0  0.15600  0.35180  0.57560  1.0000
  H   H40       1.0  0.84400  0.85180  0.42440  1.0000
  C   C61       1.0  0.00180  0.39820  0.50530  1.0000
  C   C62       1.0  0.99820  0.89820  0.49470  1.0000
  C   C63       1.0  0.94470  0.46750  0.47240  1.0000
  C   C64       1.0  0.05530  0.96750  0.52760  1.0000
  H   H41       1.0  0.86510  0.46780  0.43970  1.0000
  H   H42       1.0  0.13490  0.96780  0.56030  1.0000
  C   C65       1.0  0.00410  0.53360  0.48780  1.0000
  C   C66       1.0  0.99590  0.03360  0.51220  1.0000
  H   H43       1.0  0.96470  0.57850  0.46570  1.0000
  H   H44       1.0  0.03530  0.07850  0.53430  1.0000
  C   C67       1.0  0.12500  0.53460  0.53670  1.0000
  C   C68       1.0  0.87500  0.03460  0.46330  1.0000
  C   C69       1.0  0.18880  0.60260  0.55450  1.0000
  C   C70       1.0  0.81120  0.10260  0.44550  1.0000
  H   H45       1.0  0.15070  0.64790  0.53240  1.0000
  H   H46       1.0  0.84930  0.14790  0.46760  1.0000
  Cu  Cu1       1.0  0.39869  0.68609  0.40605  1.0000
  Cu  Cu2       1.0  0.60131  0.18609  0.59395  1.0000
  N   N1        1.0  0.24940  0.62980  0.33780  1.0000
  N   N2        1.0  0.75060  0.12980  0.66220  1.0000
  N   N3        1.0  0.45310  0.58180  0.42510  1.0000
  N   N4        1.0  0.54690  0.08180  0.57490  1.0000
  N   N5        1.0  0.57020  0.70230  0.47700  1.0000
  N   N6        1.0  0.42980  0.20230  0.52300  1.0000
  O   O1        1.0  0.84980  0.19800  0.96850  1.0000
  O   O2        1.0  0.15020  0.69800  0.03150  1.0000
  O   O3        1.0  0.01320  0.25742  0.11180  1.0000
  O   O4        1.0  0.98680  0.75742  0.88820  1.0000
  O   O5        1.0  0.02750  0.24130  0.94300  1.0000
  O   O6        1.0  0.97250  0.74130  0.05700  1.0000
  O   O7        1.0  0.35910  0.78224  0.33770  1.0000
  O   O8        1.0  0.64090  0.28224  0.66230  1.0000
  O   O9        1.0  0.31970  0.74470  0.16080  1.0000
  O   O10       1.0  0.68030  0.24470  0.83920  1.0000
  O   O11       1.0  0.49090  0.82220  0.24690  1.0000
  O   O12       1.0  0.50910  0.32220  0.75310  1.0000
  O   O13       1.0  0.35390  0.73309  0.53080  1.0000
  O   O14       1.0  0.64610  0.23309  0.46920  1.0000
  O   O15       1.0  0.33270  0.73752  0.69880  1.0000
  O   O16       1.0  0.66730  0.23752  0.30120  1.0000
  O   O17       1.0  0.50710  0.67814  0.68350  1.0000
  O   O18       1.0  0.49290  0.17814  0.31650  1.0000
  O   O19       1.0  0.81550  0.33410  0.51730  1.0000
  O   O20       1.0  0.18450  0.83410  0.48270  1.0000
  O   O21       1.0  0.86960  0.29680  0.37230  1.0000
  O   O22       1.0  0.13040  0.79680  0.62770  1.0000
  O   O23       1.0  0.98930  0.25070  0.54270  1.0000
  O   O24       1.0  0.01070  0.75070  0.45730  1.0000
  P   P1        1.0  0.97725  0.20896  0.02026  1.0000
  P   P2        1.0  0.02275  0.70896  0.97974  1.0000
  P   P3        1.0  0.36584  0.80338  0.23945  1.0000
  P   P4        1.0  0.63416  0.30338  0.76055  1.0000
  P   P5        1.0  0.37991  0.69294  0.62828  1.0000
  P   P6        1.0  0.62009  0.19294  0.37172  1.0000
  P   P7        1.0  0.91951  0.31221  0.48272  1.0000
  P   P8        1.0  0.08049  0.81221  0.51728  1.0000
  H   H47       1.0  0.25300  0.73100  0.15700  1.0000
  H   H48       1.0  0.74700  0.23100  0.84300  1.0000
  H   H49       1.0  0.27000  0.75800  0.67300  1.0000
  H   H50       1.0  0.73000  0.25800  0.32700  1.0000
  H   H51       1.0  0.77200  0.29800  0.50500  1.0000
  H   H52       1.0  0.22800  0.79800  0.49500  1.0000
  H   H53       1.0  0.09400  0.25700  0.96100  1.0000
  H   H54       1.0  0.90600  0.75700  0.03900  1.0000
  H   H55       1.0  0.54500  0.69800  0.74000  1.0000
  H   H56       1.0  0.45500  0.19800  0.26000  1.0000
