data_image0
_chemical_formula_structural       Er6O54C24H12
_chemical_formula_sum              "Er6 O54 C24 H12"
_cell_length_a       10.288
_cell_length_b       12.0745
_cell_length_c       14.3052
_cell_angle_alpha    74.886
_cell_angle_beta     79.1802
_cell_angle_gamma    77.297

_space_group_name_H-M_alt    "P 1"
_space_group_IT_number       1

loop_
  _space_group_symop_operation_xyz
  'x, y, z'

loop_
  _atom_site_type_symbol
  _atom_site_label
  _atom_site_symmetry_multiplicity
  _atom_site_fract_x
  _atom_site_fract_y
  _atom_site_fract_z
  _atom_site_occupancy
  Er  Er1       1.0  0.55599  0.24772  0.97380  1.0000
  Er  Er2       1.0  0.44401  0.75228  0.02620  1.0000
  Er  Er3       1.0  0.12915  0.41250  0.69168  1.0000
  Er  Er4       1.0  0.87085  0.58750  0.30832  1.0000
  Er  Er5       1.0  0.77351  0.08680  0.37040  1.0000
  Er  Er6       1.0  0.22649  0.91320  0.62960  1.0000
  O   O1        1.0  0.34100  0.36940  0.94210  1.0000
  O   O2        1.0  0.65900  0.63060  0.05790  1.0000
  O   O3        1.0  0.50960  0.25830  0.81600  1.0000
  O   O4        1.0  0.49040  0.74170  0.18400  1.0000
  O   O5        1.0  0.38710  0.13120  0.99810  1.0000
  O   O6        1.0  0.61290  0.86880  0.00190  1.0000
  O   O7        1.0  0.34830  0.94820  0.02930  1.0000
  O   O8        1.0  0.65170  0.05180  0.97070  1.0000
  O   O9        1.0  0.73750  0.24010  0.05820  1.0000
  O   O10       1.0  0.26250  0.75990  0.94180  1.0000
  O   O11       1.0  0.52620  0.13700  0.14030  1.0000
  O   O12       1.0  0.47380  0.86300  0.85970  1.0000
  O   O13       1.0  0.46640  0.37420  0.08640  1.0000
  O   O14       1.0  0.53360  0.62580  0.91360  1.0000
  O   O15       1.0  0.40150  0.56170  0.09330  1.0000
  O   O16       1.0  0.59850  0.43830  0.90670  1.0000
  O   O17       1.0  0.76530  0.23750  0.86030  1.0000
  O   O18       1.0  0.23470  0.76250  0.13970  1.0000
  O   O19       1.0  0.17870  0.41060  0.84680  1.0000
  O   O20       1.0  0.82130  0.58940  0.15320  1.0000
  O   O21       1.0  0.34740  0.29590  0.72210  1.0000
  O   O22       1.0  0.65260  0.70410  0.27790  1.0000
  O   O23       1.0  0.29470  0.53300  0.66230  1.0000
  O   O24       1.0  0.70530  0.46700  0.33770  1.0000
  O   O25       1.0  0.02840  0.60690  0.69220  1.0000
  O   O26       1.0  0.97160  0.39310  0.30780  1.0000
  O   O27       1.0  0.14950  0.52460  0.52350  1.0000
  O   O28       1.0  0.85050  0.47540  0.47650  1.0000
  O   O29       1.0  0.05610  0.58240  0.38590  1.0000
  O   O30       1.0  0.94390  0.41760  0.61410  1.0000
  O   O31       1.0  0.78250  0.71020  0.42220  1.0000
  O   O32       1.0  0.21750  0.28980  0.57780  1.0000
  O   O33       1.0  0.90570  0.77940  0.24020  1.0000
  O   O34       1.0  0.09430  0.22060  0.75980  1.0000
  O   O35       1.0  0.92240  0.42250  0.80800  1.0000
  O   O36       1.0  0.07760  0.57750  0.19200  1.0000
  O   O37       1.0  0.81000  0.19740  0.20300  1.0000
  O   O38       1.0  0.19000  0.80260  0.79700  1.0000
  O   O39       1.0  0.59160  0.10140  0.28660  1.0000
  O   O40       1.0  0.40840  0.89860  0.71340  1.0000
  O   O41       1.0  0.85000  0.96480  0.25540  1.0000
  O   O42       1.0  0.15000  0.03520  0.74460  1.0000
  O   O43       1.0  0.72920  0.89490  0.43770  1.0000
  O   O44       1.0  0.27080  0.10510  0.56230  1.0000
  O   O45       1.0  0.16600  0.93170  0.47390  1.0000
  O   O46       1.0  0.83400  0.06830  0.52610  1.0000
  O   O47       1.0  0.99370  0.97050  0.38870  1.0000
  O   O48       1.0  0.00630  0.02950  0.61130  1.0000
  O   O49       1.0  0.32640  0.71820  0.62910  1.0000
  O   O50       1.0  0.67360  0.28180  0.37090  1.0000
  O   O51       1.0  0.06280  0.79210  0.65030  1.0000
  O   O52       1.0  0.93720  0.20790  0.34970  1.0000
  O   O53       1.0  0.57230  0.09670  0.49100  1.0000
  O   O54       1.0  0.42770  0.90330  0.50900  1.0000
  C   C1        1.0  0.29560  0.36510  0.86750  1.0000
  C   C2        1.0  0.70440  0.63490  0.13250  1.0000
  C   C3        1.0  0.39190  0.30140  0.79640  1.0000
  C   C4        1.0  0.60810  0.69860  0.20360  1.0000
  C   C5        1.0  0.42300  0.02450  0.00730  1.0000
  C   C6        1.0  0.57700  0.97550  0.99270  1.0000
  C   C7        1.0  0.72850  0.19770  0.14850  1.0000
  C   C8        1.0  0.27150  0.80230  0.85150  1.0000
  C   C9        1.0  0.60540  0.14170  0.19570  1.0000
  C   C10       1.0  0.39460  0.85830  0.80430  1.0000
  C   C11       1.0  0.46170  0.48040  0.05260  1.0000
  C   C12       1.0  0.53830  0.51960  0.94740  1.0000
  C   C13       1.0  0.25500  0.63920  0.65190  1.0000
  C   C14       1.0  0.74500  0.36080  0.34810  1.0000
  C   C15       1.0  0.10130  0.68530  0.66460  1.0000
  C   C16       1.0  0.89870  0.31470  0.33540  1.0000
  C   C17       1.0  0.05980  0.52950  0.47390  1.0000
  C   C18       1.0  0.94020  0.47050  0.52610  1.0000
  C   C19       1.0  0.85280  0.85800  0.28570  1.0000
  C   C20       1.0  0.14720  0.14200  0.71430  1.0000
  C   C21       1.0  0.78230  0.81680  0.39260  1.0000
  C   C22       1.0  0.21770  0.18320  0.60740  1.0000
  C   C23       1.0  0.04640  0.97400  0.46050  1.0000
  C   C24       1.0  0.95360  0.02600  0.53950  1.0000
  H   H1        1.0  0.75230  0.21300  0.80480  1.0000
  H   H2        1.0  0.24770  0.78700  0.19520  1.0000
  H   H3        1.0  0.83420  0.18200  0.89170  1.0000
  H   H4        1.0  0.16580  0.81800  0.10830  1.0000
  H   H5        1.0  0.48150  0.13510  0.48760  1.0000
  H   H6        1.0  0.51850  0.86490  0.51240  1.0000
  H   H7        1.0  0.58100  0.05470  0.55650  1.0000
  H   H8        1.0  0.41900  0.94530  0.44350  1.0000
  H   H9        1.0  0.84640  0.40210  0.79180  1.0000
  H   H10       1.0  0.15360  0.59790  0.20820  1.0000
  H   H11       1.0  0.89880  0.44310  0.86970  1.0000
  H   H12       1.0  0.10120  0.55690  0.13030  1.0000
