data_image0
_chemical_formula_structural       Er2O6C2O12C6H4
_chemical_formula_sum              "Er2 O18 C8 H4"
_cell_length_a       8.7114
_cell_length_b       9.112
_cell_length_c       9.9436
_cell_angle_alpha    64.825
_cell_angle_beta     73.769
_cell_angle_gamma    75.771

_space_group_name_H-M_alt    "P 1"
_space_group_IT_number       1

loop_
  _space_group_symop_operation_xyz
  'x, y, z'

loop_
  _atom_site_type_symbol
  _atom_site_label
  _atom_site_symmetry_multiplicity
  _atom_site_fract_x
  _atom_site_fract_y
  _atom_site_fract_z
  _atom_site_occupancy
  Er  Er1       1.0  0.66524  0.63234  0.15425  1.0000
  Er  Er2       1.0  0.33476  0.36766  0.84576  1.0000
  O   O1        1.0  0.65185  0.39773  0.40205  1.0000
  O   O2        1.0  0.34815  0.60227  0.59795  1.0000
  O   O3        1.0  0.52459  0.30731  0.64633  1.0000
  O   O4        1.0  0.47541  0.69269  0.35367  1.0000
  O   O5        1.0  0.53023  0.52873  0.81005  1.0000
  O   O6        1.0  0.46977  0.47127  0.18995  1.0000
  C   C1        1.0  0.55636  0.54025  0.92358  1.0000
  C   C2        1.0  0.44364  0.45975  0.07642  1.0000
  O   O7        1.0  0.66311  0.61063  0.92310  1.0000
  O   O8        1.0  0.33689  0.38937  0.07690  1.0000
  O   O9        1.0  0.67854  0.92437  0.06972  1.0000
  O   O10       1.0  0.32146  0.07563  0.93028  1.0000
  O   O11       1.0  0.56529  0.18368  0.95568  1.0000
  O   O12       1.0  0.43471  0.81632  0.04432  1.0000
  O   O13       1.0  0.91940  0.70165  0.98057  1.0000
  O   O14       1.0  0.08060  0.29835  0.01943  1.0000
  O   O15       1.0  0.15074  0.60337  0.85855  1.0000
  O   O16       1.0  0.84926  0.39663  0.14145  1.0000
  O   O17       1.0  0.84066  0.64509  0.28495  1.0000
  O   O18       1.0  0.15934  0.35491  0.71505  1.0000
  C   C3        1.0  0.55055  0.41460  0.51454  1.0000
  C   C4        1.0  0.44945  0.58540  0.48546  1.0000
  C   C5        1.0  0.57093  0.03126  0.00782  1.0000
  C   C6        1.0  0.42907  0.96874  0.99218  1.0000
  C   C7        1.0  0.02051  0.58781  0.95387  1.0000
  C   C8        1.0  0.97949  0.41219  0.04613  1.0000
  H   H1        1.0  0.82800  0.62000  0.37530  1.0000
  H   H2        1.0  0.17200  0.38000  0.62470  1.0000
  H   H3        1.0  0.93000  0.66900  0.24900  1.0000
  H   H4        1.0  0.07000  0.33100  0.75100  1.0000
