data_image0
_chemical_formula_structural       Er2O18C8H4
_chemical_formula_sum              "Er2 O18 C8 H4"
_cell_length_a       8.2773
_cell_length_b       9.7009
_cell_length_c       9.754
_cell_angle_alpha    61.4103
_cell_angle_beta     78.565
_cell_angle_gamma    69.9507

_space_group_name_H-M_alt    "P 1"
_space_group_IT_number       1

loop_
  _space_group_symop_operation_xyz
  'x, y, z'

loop_
  _atom_site_type_symbol
  _atom_site_label
  _atom_site_symmetry_multiplicity
  _atom_site_fract_x
  _atom_site_fract_y
  _atom_site_fract_z
  _atom_site_occupancy
  Er  Er1       1.0  0.33083  0.37728  0.33543  1.0000
  Er  Er2       1.0  0.66917  0.62272  0.66457  1.0000
  O   O1        1.0  0.09960  0.30240  0.51680  1.0000
  O   O2        1.0  0.90040  0.69760  0.48320  1.0000
  O   O3        1.0  0.88740  0.38870  0.66410  1.0000
  O   O4        1.0  0.11260  0.61130  0.33590  1.0000
  O   O5        1.0  0.56120  0.15920  0.49070  1.0000
  O   O6        1.0  0.43880  0.84080  0.50930  1.0000
  O   O7        1.0  0.68020  0.88790  0.61290  1.0000
  O   O8        1.0  0.31980  0.11210  0.38710  1.0000
  O   O9        1.0  0.53970  0.50210  0.31680  1.0000
  O   O10       1.0  0.46030  0.49790  0.68320  1.0000
  O   O11       1.0  0.65920  0.59970  0.42510  1.0000
  O   O12       1.0  0.34080  0.40030  0.57490  1.0000
  O   O13       1.0  0.33300  0.60950  0.08130  1.0000
  O   O14       1.0  0.66700  0.39050  0.91870  1.0000
  O   O15       1.0  0.46730  0.69680  0.84540  1.0000
  O   O16       1.0  0.53270  0.30320  0.15460  1.0000
  O   O17       1.0  0.11990  0.41040  0.17840  1.0000
  O   O18       1.0  0.88010  0.58960  0.82160  1.0000
  C   C1        1.0  0.99580  0.41100  0.55280  1.0000
  C   C2        1.0  0.00420  0.58900  0.44720  1.0000
  C   C3        1.0  0.57030  0.01310  0.53030  1.0000
  C   C4        1.0  0.42970  0.98690  0.46970  1.0000
  C   C5        1.0  0.55770  0.52930  0.42590  1.0000
  C   C6        1.0  0.44230  0.47070  0.57410  1.0000
  C   C7        1.0  0.44140  0.58840  0.97950  1.0000
  C   C8        1.0  0.55860  0.41160  0.02050  1.0000
  H   H1        1.0  0.09610  0.48030  0.07090  1.0000
  H   H2        1.0  0.90390  0.51970  0.92910  1.0000
  H   H3        1.0  0.04110  0.34600  0.22380  1.0000
  H   H4        1.0  0.95890  0.65400  0.77620  1.0000
