data_image0
_chemical_formula_structural       Er4O36C16H8
_chemical_formula_sum              "Er4 O36 C16 H8"
_cell_length_a       8.6337
_cell_length_b       8.6089
_cell_length_c       15.6138
_cell_angle_alpha    90
_cell_angle_beta     99.873
_cell_angle_gamma    90

_space_group_name_H-M_alt    "P 1"
_space_group_IT_number       1

loop_
  _space_group_symop_operation_xyz
  'x, y, z'

loop_
  _atom_site_type_symbol
  _atom_site_label
  _atom_site_symmetry_multiplicity
  _atom_site_fract_x
  _atom_site_fract_y
  _atom_site_fract_z
  _atom_site_occupancy
  Er  Er1       1.0  0.84560  0.92124  0.58646  1.0000
  Er  Er2       1.0  0.84560  0.07876  0.08646  1.0000
  Er  Er3       1.0  0.36840  0.42136  0.65404  1.0000
  Er  Er4       1.0  0.36840  0.57864  0.15404  1.0000
  O   O1        1.0  0.60890  0.79170  0.53380  1.0000
  O   O2        1.0  0.60890  0.20830  0.03380  1.0000
  O   O3        1.0  0.79350  0.71380  0.68150  1.0000
  O   O4        1.0  0.79350  0.28620  0.18150  1.0000
  O   O5        1.0  0.66780  0.00340  0.68040  1.0000
  O   O6        1.0  0.66780  0.99660  0.18040  1.0000
  O   O7        1.0  0.69810  0.13880  0.53060  1.0000
  O   O8        1.0  0.69810  0.86120  0.03060  1.0000
  O   O9        1.0  0.95520  0.13560  0.67750  1.0000
  O   O10       1.0  0.95520  0.86440  0.17750  1.0000
  O   O11       1.0  0.05520  0.04540  0.53370  1.0000
  O   O12       1.0  0.05520  0.95460  0.03370  1.0000
  O   O13       1.0  0.08040  0.83870  0.67800  1.0000
  O   O14       1.0  0.08040  0.16130  0.17800  1.0000
  O   O15       1.0  0.94670  0.69090  0.53220  1.0000
  O   O16       1.0  0.94670  0.30910  0.03220  1.0000
  O   O17       1.0  0.79340  0.92160  0.42610  1.0000
  O   O18       1.0  0.79340  0.07840  0.92610  1.0000
  O   O19       1.0  0.42340  0.62670  0.56240  1.0000
  O   O20       1.0  0.42340  0.37330  0.06240  1.0000
  O   O21       1.0  0.61290  0.53980  0.70910  1.0000
  O   O22       1.0  0.61290  0.46020  0.20910  1.0000
  O   O23       1.0  0.50840  0.19780  0.70740  1.0000
  O   O24       1.0  0.50840  0.80220  0.20740  1.0000
  O   O25       1.0  0.54910  0.33910  0.56070  1.0000
  O   O26       1.0  0.54910  0.66090  0.06070  1.0000
  O   O27       1.0  0.16350  0.29560  0.70890  1.0000
  O   O28       1.0  0.16350  0.70440  0.20890  1.0000
  O   O29       1.0  0.25650  0.21370  0.56090  1.0000
  O   O30       1.0  0.25650  0.78630  0.06090  1.0000
  O   O31       1.0  0.25730  0.64670  0.70580  1.0000
  O   O32       1.0  0.25730  0.35330  0.20580  1.0000
  O   O33       1.0  0.13000  0.50310  0.55960  1.0000
  O   O34       1.0  0.13000  0.49690  0.05960  1.0000
  O   O35       1.0  0.41390  0.42130  0.81360  1.0000
  O   O36       1.0  0.41390  0.57870  0.31360  1.0000
  C   C1        1.0  0.55610  0.69090  0.57970  1.0000
  C   C2        1.0  0.55610  0.30910  0.07970  1.0000
  C   C3        1.0  0.66190  0.64460  0.66330  1.0000
  C   C4        1.0  0.66190  0.35540  0.16330  1.0000
  C   C5        1.0  0.59420  0.12680  0.66220  1.0000
  C   C6        1.0  0.59420  0.87320  0.16220  1.0000
  C   C7        1.0  0.61780  0.21020  0.57790  1.0000
  C   C8        1.0  0.61780  0.78980  0.07790  1.0000
  C   C9        1.0  0.07970  0.19780  0.66210  1.0000
  C   C10       1.0  0.07970  0.80220  0.16210  1.0000
  C   C11       1.0  0.13360  0.14870  0.57850  1.0000
  C   C12       1.0  0.13360  0.85130  0.07850  1.0000
  C   C13       1.0  0.14130  0.71310  0.66050  1.0000
  C   C14       1.0  0.14130  0.28690  0.16050  1.0000
  C   C15       1.0  0.06580  0.62740  0.57700  1.0000
  C   C16       1.0  0.06580  0.37260  0.07700  1.0000
  H   H1        1.0  0.84250  0.84130  0.39760  1.0000
  H   H2        1.0  0.84250  0.15870  0.89760  1.0000
  H   H3        1.0  0.73460  0.98640  0.38310  1.0000
  H   H4        1.0  0.73460  0.01360  0.88310  1.0000
  H   H5        1.0  0.52130  0.43730  0.84060  1.0000
  H   H6        1.0  0.52130  0.56270  0.34060  1.0000
  H   H7        1.0  0.35140  0.40850  0.85710  1.0000
  H   H8        1.0  0.35140  0.59150  0.35710  1.0000
