data_image0
_chemical_formula_structural       Er4Se4O44C8H24
_chemical_formula_sum              "Er4 Se4 O44 C8 H24"
_cell_length_a       10.9039
_cell_length_b       12.04
_cell_length_c       12.332
_cell_angle_alpha    90
_cell_angle_beta     106.985
_cell_angle_gamma    90

_space_group_name_H-M_alt    "P 1"
_space_group_IT_number       1

loop_
  _space_group_symop_operation_xyz
  'x, y, z'

loop_
  _atom_site_type_symbol
  _atom_site_label
  _atom_site_symmetry_multiplicity
  _atom_site_fract_x
  _atom_site_fract_y
  _atom_site_fract_z
  _atom_site_occupancy
  Er  Er1       1.0  0.51129  0.49414  0.25401  1.0000
  Er  Er2       1.0  0.98871  0.99414  0.24599  1.0000
  Er  Er3       1.0  0.48871  0.50586  0.74599  1.0000
  Er  Er4       1.0  0.01129  0.00586  0.75401  1.0000
  Se  Se1       1.0  0.76245  0.32437  0.44776  1.0000
  Se  Se2       1.0  0.73755  0.82437  0.05224  1.0000
  Se  Se3       1.0  0.23755  0.67563  0.55224  1.0000
  Se  Se4       1.0  0.26245  0.17563  0.94776  1.0000
  O   O1        1.0  0.67835  0.60838  0.24906  1.0000
  O   O2        1.0  0.82165  0.10838  0.25094  1.0000
  O   O3        1.0  0.32165  0.39162  0.75094  1.0000
  O   O4        1.0  0.17835  0.89162  0.74906  1.0000
  O   O5        1.0  0.65415  0.35556  0.32845  1.0000
  O   O6        1.0  0.84585  0.85556  0.17155  1.0000
  O   O7        1.0  0.34585  0.64444  0.67155  1.0000
  O   O8        1.0  0.15415  0.14444  0.82845  1.0000
  O   O9        1.0  0.89197  0.39710  0.45404  1.0000
  O   O10       1.0  0.60803  0.89710  0.04596  1.0000
  O   O11       1.0  0.10803  0.60290  0.54596  1.0000
  O   O12       1.0  0.39197  0.10290  0.95404  1.0000
  O   O13       1.0  0.57548  0.40611  0.10549  1.0000
  O   O14       1.0  0.92452  0.90611  0.39451  1.0000
  O   O15       1.0  0.42452  0.59389  0.89451  1.0000
  O   O16       1.0  0.07548  0.09389  0.60549  1.0000
  O   O17       1.0  0.36620  0.62979  0.26144  1.0000
  O   O18       1.0  0.13380  0.12979  0.23856  1.0000
  O   O19       1.0  0.63380  0.37021  0.73856  1.0000
  O   O20       1.0  0.86620  0.87021  0.76144  1.0000
  O   O21       1.0  0.71534  0.35044  0.55767  1.0000
  O   O22       1.0  0.78466  0.85044  0.94233  1.0000
  O   O23       1.0  0.28466  0.64956  0.44233  1.0000
  O   O24       1.0  0.21534  0.14956  0.05767  1.0000
  O   O25       1.0  0.56945  0.41298  0.92250  1.0000
  O   O26       1.0  0.93055  0.91298  0.57750  1.0000
  O   O27       1.0  0.43055  0.58702  0.07750  1.0000
  O   O28       1.0  0.06945  0.08702  0.42250  1.0000
  O   O29       1.0  0.59716  0.57337  0.43579  1.0000
  O   O30       1.0  0.90284  0.07337  0.06421  1.0000
  O   O31       1.0  0.40284  0.42663  0.56421  1.0000
  O   O32       1.0  0.09716  0.92663  0.93579  1.0000
  O   O33       1.0  0.58771  0.57936  0.61449  1.0000
  O   O34       1.0  0.91229  0.07936  0.88551  1.0000
  O   O35       1.0  0.41229  0.42064  0.38551  1.0000
  O   O36       1.0  0.08771  0.92064  0.11449  1.0000
  O   O37       1.0  0.33762  0.38121  0.15977  1.0000
  O   O38       1.0  0.16238  0.88121  0.34023  1.0000
  O   O39       1.0  0.66238  0.61879  0.84023  1.0000
  O   O40       1.0  0.83762  0.11879  0.65977  1.0000
  O   O41       1.0  0.79344  0.19117  0.44593  1.0000
  O   O42       1.0  0.70656  0.69117  0.05407  1.0000
  O   O43       1.0  0.20656  0.80883  0.55407  1.0000
  O   O44       1.0  0.29344  0.30883  0.94593  1.0000
  C   C1        1.0  0.55330  0.54399  0.51375  1.0000
  C   C2        1.0  0.94670  0.04399  0.98625  1.0000
  C   C3        1.0  0.44670  0.45601  0.48625  1.0000
  C   C4        1.0  0.05330  0.95601  0.01375  1.0000
  C   C5        1.0  0.54159  0.44764  0.00761  1.0000
  C   C6        1.0  0.95841  0.94764  0.49239  1.0000
  C   C7        1.0  0.45841  0.55236  0.99239  1.0000
  C   C8        1.0  0.04159  0.05236  0.50761  1.0000
  H   H1        1.0  0.73400  0.63400  0.30200  1.0000
  H   H2        1.0  0.76600  0.13400  0.19800  1.0000
  H   H3        1.0  0.26600  0.36600  0.69800  1.0000
  H   H4        1.0  0.23400  0.86600  0.80200  1.0000
  H   H5        1.0  0.69400  0.63600  0.19480  1.0000
  H   H6        1.0  0.80600  0.13600  0.30520  1.0000
  H   H7        1.0  0.30600  0.36400  0.80520  1.0000
  H   H8        1.0  0.19400  0.86400  0.69480  1.0000
  H   H9        1.0  0.34300  0.68000  0.21500  1.0000
  H   H10       1.0  0.15700  0.18000  0.28500  1.0000
  H   H11       1.0  0.65700  0.32000  0.78500  1.0000
  H   H12       1.0  0.84300  0.82000  0.71500  1.0000
  H   H13       1.0  0.34200  0.64500  0.31500  1.0000
  H   H14       1.0  0.15800  0.14500  0.18500  1.0000
  H   H15       1.0  0.65800  0.35500  0.68500  1.0000
  H   H16       1.0  0.84200  0.85500  0.81500  1.0000
  H   H17       1.0  0.32000  0.35700  0.09470  1.0000
  H   H18       1.0  0.18000  0.85700  0.40530  1.0000
  H   H19       1.0  0.68000  0.64300  0.90530  1.0000
  H   H20       1.0  0.82000  0.14300  0.59470  1.0000
  H   H21       1.0  0.29300  0.34700  0.18800  1.0000
  H   H22       1.0  0.20700  0.84700  0.31200  1.0000
  H   H23       1.0  0.70700  0.65300  0.81200  1.0000
  H   H24       1.0  0.79300  0.15300  0.68800  1.0000
