data_image0
_chemical_formula_structural       Nd2N2O18S8C6H2C2H2C2H2C2H2C4H4C4H2C2H2C4H2C2H2C2H4C4H2C2H2C2H2C2H2C10H2C2H2C2H2C2H2C4H4C4H2C2H2C4H2C2H2C2H4C4H2C2H2C2H2C2H2C6H2C2H6C2H6
_chemical_formula_sum              "Nd2 N2 O18 S8 C94 H78"
_cell_length_a       8.2527
_cell_length_b       15.4481
_cell_length_c       22.8505
_cell_angle_alpha    96.381
_cell_angle_beta     96.7
_cell_angle_gamma    98.706

_space_group_name_H-M_alt    "P 1"
_space_group_IT_number       1

loop_
  _space_group_symop_operation_xyz
  'x, y, z'

loop_
  _atom_site_type_symbol
  _atom_site_label
  _atom_site_symmetry_multiplicity
  _atom_site_fract_x
  _atom_site_fract_y
  _atom_site_fract_z
  _atom_site_occupancy
  Nd  Nd1       1.0  0.48426  0.64774  0.19407  1.0000
  Nd  Nd2       1.0  0.51574  0.35226  0.80593  1.0000
  N   N1        1.0  0.27840  0.51830  0.00680  1.0000
  N   N2        1.0  0.72160  0.48170  0.99320  1.0000
  O   O1        1.0  0.32690  0.49240  0.18353  1.0000
  O   O2        1.0  0.67310  0.50760  0.81647  1.0000
  O   O3        1.0  0.17640  0.59720  0.17730  1.0000
  O   O4        1.0  0.82360  0.40280  0.82270  1.0000
  O   O5        1.0  0.77050  0.67970  0.16489  1.0000
  O   O6        1.0  0.22950  0.32030  0.83511  1.0000
  O   O7        1.0  0.59510  0.76000  0.12894  1.0000
  O   O8        1.0  0.40490  0.24000  0.87106  1.0000
  O   O9        1.0  0.66110  0.58540  0.26579  1.0000
  O   O10       1.0  0.33890  0.41460  0.73421  1.0000
  O   O11       1.0  0.43070  0.61680  0.29697  1.0000
  O   O12       1.0  0.56930  0.38320  0.70303  1.0000
  O   O13       1.0  0.36870  0.78070  0.22987  1.0000
  O   O14       1.0  0.63130  0.21930  0.77013  1.0000
  O   O15       1.0  0.62730  0.78040  0.26620  1.0000
  O   O16       1.0  0.37270  0.21960  0.73380  1.0000
  O   O17       1.0  0.44930  0.57790  0.09110  1.0000
  O   O18       1.0  0.55070  0.42210  0.90890  1.0000
  S   S1        1.0  0.21652  0.32074  0.13376  1.0000
  S   S2        1.0  0.78348  0.67926  0.86624  1.0000
  S   S3        1.0  0.68023  0.92841  0.10913  1.0000
  S   S4        1.0  0.31977  0.07159  0.89087  1.0000
  S   S5        1.0  0.38860  0.65588  0.41273  1.0000
  S   S6        1.0  0.61140  0.34412  0.58727  1.0000
  S   S7        1.0  0.73190  0.84703  0.38474  1.0000
  S   S8        1.0  0.26810  0.15297  0.61526  1.0000
  C   C1        1.0  0.18920  0.51710  0.17710  1.0000
  C   C2        1.0  0.81080  0.48290  0.82290  1.0000
  C   C3        1.0  0.03140  0.44980  0.16870  1.0000
  C   C4        1.0  0.96860  0.55020  0.83130  1.0000
  C   C5        1.0  0.88830  0.47700  0.18220  1.0000
  C   C6        1.0  0.11170  0.52300  0.81780  1.0000
  H   H1        1.0  0.88980  0.53640  0.19510  1.0000
  H   H2        1.0  0.11020  0.46360  0.80490  1.0000
  C   C7        1.0  0.74070  0.41810  0.17710  1.0000
  C   C8        1.0  0.25930  0.58190  0.82290  1.0000
  H   H3        1.0  0.64540  0.43750  0.18750  1.0000
  H   H4        1.0  0.35460  0.56250  0.81250  1.0000
  C   C9        1.0  0.73790  0.33110  0.15660  1.0000
  C   C10       1.0  0.26210  0.66890  0.84340  1.0000
  H   H5        1.0  0.63960  0.29130  0.15320  1.0000
  H   H6        1.0  0.36040  0.70870  0.84680  1.0000
  C   C11       1.0  0.87880  0.30160  0.14100  1.0000
  C   C12       1.0  0.12120  0.69840  0.85900  1.0000
  H   H7        1.0  0.87270  0.24270  0.12570  1.0000
  H   H8        1.0  0.12730  0.75730  0.87430  1.0000
  C   C13       1.0  0.03090  0.35880  0.14770  1.0000
  C   C14       1.0  0.96910  0.64120  0.85230  1.0000
  C   C15       1.0  0.14860  0.20350  0.10600  1.0000
  C   C16       1.0  0.85140  0.79650  0.89400  1.0000
  H   H9        1.0  0.08050  0.17520  0.13260  1.0000
  H   H10       1.0  0.91950  0.82480  0.86740  1.0000
  H   H11       1.0  0.08450  0.19650  0.06690  1.0000
  H   H12       1.0  0.91550  0.80350  0.93310  1.0000
  C   C17       1.0  0.30250  0.16300  0.10290  1.0000
  C   C18       1.0  0.69750  0.83700  0.89710  1.0000
  C   C19       1.0  0.37350  0.15520  0.05210  1.0000
  C   C20       1.0  0.62650  0.84480  0.94790  1.0000
  H   H13       1.0  0.32860  0.17680  0.01860  1.0000
  H   H14       1.0  0.67140  0.82320  0.98140  1.0000
  C   C21       1.0  0.51240  0.11520  0.05030  1.0000
  C   C22       1.0  0.48760  0.88480  0.94970  1.0000
  H   H15       1.0  0.55790  0.10890  0.01500  1.0000
  H   H16       1.0  0.44210  0.89110  0.98500  1.0000
  C   C23       1.0  0.58400  0.08480  0.09930  1.0000
  C   C24       1.0  0.41600  0.91520  0.90070  1.0000
  C   C25       1.0  0.51400  0.09320  0.15090  1.0000
  C   C26       1.0  0.48600  0.90680  0.84910  1.0000
  H   H17       1.0  0.56000  0.07220  0.18450  1.0000
  H   H18       1.0  0.44000  0.92780  0.81550  1.0000
  C   C27       1.0  0.37420  0.13310  0.15270  1.0000
  C   C28       1.0  0.62580  0.86690  0.84730  1.0000
  H   H19       1.0  0.32860  0.13980  0.18800  1.0000
  H   H20       1.0  0.67140  0.86020  0.81200  1.0000
  C   C29       1.0  0.73870  0.04270  0.09670  1.0000
  C   C30       1.0  0.26130  0.95730  0.90330  1.0000
  H   H21       1.0  0.82700  0.07320  0.12710  1.0000
  H   H22       1.0  0.17300  0.92680  0.87290  1.0000
  H   H23       1.0  0.77640  0.04530  0.05810  1.0000
  H   H24       1.0  0.22360  0.95470  0.94190  1.0000
  C   C31       1.0  0.86630  0.88600  0.10240  1.0000
  C   C32       1.0  0.13370  0.11400  0.89760  1.0000
  C   C33       1.0  0.00710  0.93530  0.08640  1.0000
  C   C34       1.0  0.99290  0.06470  0.91360  1.0000
  H   H25       1.0  0.00300  0.99240  0.07780  1.0000
  H   H26       1.0  0.99700  0.00760  0.92220  1.0000
  C   C35       1.0  0.14910  0.90210  0.08300  1.0000
  C   C36       1.0  0.85090  0.09790  0.91700  1.0000
  H   H27       1.0  0.24060  0.93710  0.07250  1.0000
  H   H28       1.0  0.75940  0.06290  0.92750  1.0000
  C   C37       1.0  0.16030  0.81710  0.09480  1.0000
  C   C38       1.0  0.83970  0.18290  0.90520  1.0000
  H   H29       1.0  0.25740  0.79420  0.09200  1.0000
  H   H30       1.0  0.74260  0.20580  0.90800  1.0000
  C   C39       1.0  0.02470  0.76780  0.11080  1.0000
  C   C40       1.0  0.97530  0.23220  0.88920  1.0000
  H   H31       1.0  0.03120  0.71060  0.11880  1.0000
  H   H32       1.0  0.96880  0.28940  0.88120  1.0000
  C   C41       1.0  0.87890  0.79930  0.11560  1.0000
  C   C42       1.0  0.12110  0.20070  0.88440  1.0000
  C   C43       1.0  0.73790  0.74340  0.13740  1.0000
  C   C44       1.0  0.26210  0.25660  0.86260  1.0000
  C   C45       1.0  0.56870  0.59350  0.30640  1.0000
  C   C46       1.0  0.43130  0.40650  0.69360  1.0000
  C   C47       1.0  0.63040  0.57370  0.36740  1.0000
  C   C48       1.0  0.36960  0.42630  0.63260  1.0000
  C   C49       1.0  0.76500  0.52780  0.37180  1.0000
  C   C50       1.0  0.23500  0.47220  0.62820  1.0000
  H   H33       1.0  0.81230  0.51230  0.33790  1.0000
  H   H34       1.0  0.18770  0.48770  0.66210  1.0000
  C   C51       1.0  0.82840  0.50530  0.42620  1.0000
  C   C52       1.0  0.17160  0.49470  0.57380  1.0000
  H   H35       1.0  0.91630  0.47400  0.42940  1.0000
  H   H36       1.0  0.08370  0.52600  0.57060  1.0000
  C   C53       1.0  0.75340  0.53190  0.47650  1.0000
  C   C54       1.0  0.24660  0.46810  0.52350  1.0000
  H   H37       1.0  0.79270  0.51700  0.51330  1.0000
  H   H38       1.0  0.20730  0.48300  0.48670  1.0000
  C   C55       1.0  0.62730  0.57790  0.47290  1.0000
  C   C56       1.0  0.37270  0.42210  0.52710  1.0000
  H   H39       1.0  0.58360  0.59540  0.50720  1.0000
  H   H40       1.0  0.41640  0.40460  0.49280  1.0000
  C   C57       1.0  0.56130  0.59980  0.41860  1.0000
  C   C58       1.0  0.43870  0.40020  0.58140  1.0000
  C   C59       1.0  0.38210  0.70350  0.48950  1.0000
  C   C60       1.0  0.61790  0.29650  0.51050  1.0000
  H   H41       1.0  0.35370  0.65750  0.51400  1.0000
  H   H42       1.0  0.64630  0.34250  0.48600  1.0000
  H   H43       1.0  0.48790  0.73870  0.50670  1.0000
  H   H44       1.0  0.51210  0.26130  0.49330  1.0000
  C   C61       1.0  0.25010  0.75990  0.48370  1.0000
  C   C62       1.0  0.74990  0.24010  0.51630  1.0000
  C   C63       1.0  0.09490  0.73120  0.50000  1.0000
  C   C64       1.0  0.90510  0.26880  0.50000  1.0000
  H   H45       1.0  0.07780  0.67920  0.51700  1.0000
  H   H46       1.0  0.92220  0.32080  0.48300  1.0000
  C   C65       1.0  0.96950  0.77700  0.49170  1.0000
  C   C66       1.0  0.03050  0.22300  0.50830  1.0000
  H   H47       1.0  0.86710  0.75570  0.50250  1.0000
  H   H48       1.0  0.13290  0.24430  0.49750  1.0000
  C   C67       1.0  0.99120  0.85540  0.46740  1.0000
  C   C68       1.0  0.00880  0.14460  0.53260  1.0000
  C   C69       1.0  0.13840  0.88470  0.45150  1.0000
  C   C70       1.0  0.86160  0.11530  0.54850  1.0000
  H   H49       1.0  0.15410  0.93700  0.43480  1.0000
  H   H50       1.0  0.84590  0.06300  0.56520  1.0000
  C   C71       1.0  0.26780  0.83760  0.45980  1.0000
  C   C72       1.0  0.73220  0.16240  0.54020  1.0000
  H   H51       1.0  0.36950  0.85950  0.44880  1.0000
  H   H52       1.0  0.63050  0.14050  0.55120  1.0000
  C   C73       1.0  0.83960  0.90240  0.45600  1.0000
  C   C74       1.0  0.16040  0.09760  0.54400  1.0000
  H   H53       1.0  0.87440  0.96480  0.45440  1.0000
  H   H54       1.0  0.12560  0.03520  0.54560  1.0000
  H   H55       1.0  0.76940  0.89580  0.48700  1.0000
  H   H56       1.0  0.23060  0.10420  0.51300  1.0000
  C   C75       1.0  0.59410  0.91760  0.36220  1.0000
  C   C76       1.0  0.40590  0.08240  0.63780  1.0000
  C   C77       1.0  0.57230  0.99360  0.39970  1.0000
  C   C78       1.0  0.42770  0.00640  0.60030  1.0000
  H   H57       1.0  0.62700  0.00550  0.43840  1.0000
  H   H58       1.0  0.37300  0.99450  0.56160  1.0000
  C   C79       1.0  0.47050  0.04970  0.37910  1.0000
  C   C80       1.0  0.52950  0.95030  0.62090  1.0000
  H   H59       1.0  0.46130  0.10050  0.40350  1.0000
  H   H60       1.0  0.53870  0.89950  0.59650  1.0000
  C   C81       1.0  0.38260  0.03190  0.32320  1.0000
  C   C82       1.0  0.61740  0.96810  0.67680  1.0000
  H   H61       1.0  0.31390  0.07020  0.30990  1.0000
  H   H62       1.0  0.68610  0.92980  0.69010  1.0000
  C   C83       1.0  0.39680  0.95710  0.28680  1.0000
  C   C84       1.0  0.60320  0.04290  0.71320  1.0000
  H   H63       1.0  0.33740  0.94570  0.24880  1.0000
  H   H64       1.0  0.66260  0.05430  0.75120  1.0000
  C   C85       1.0  0.49800  0.89740  0.30530  1.0000
  C   C86       1.0  0.50200  0.10260  0.69470  1.0000
  C   C87       1.0  0.49810  0.81460  0.26480  1.0000
  C   C88       1.0  0.50190  0.18540  0.73520  1.0000
  C   C89       1.0  0.36530  0.51680  0.05770  1.0000
  C   C90       1.0  0.63470  0.48320  0.94230  1.0000
  H   H65       1.0  0.36290  0.46140  0.07030  1.0000
  H   H66       1.0  0.63710  0.53860  0.92970  1.0000
  C   C91       1.0  0.26540  0.60090  0.98970  1.0000
  C   C92       1.0  0.73460  0.39910  0.01030  1.0000
  H   H67       1.0  0.22390  0.63580  0.02020  1.0000
  H   H68       1.0  0.77610  0.36420  0.97980  1.0000
  H   H69       1.0  0.19080  0.59390  0.95330  1.0000
  H   H70       1.0  0.80920  0.40610  0.04670  1.0000
  H   H71       1.0  0.37240  0.63000  0.98380  1.0000
  H   H72       1.0  0.62760  0.37000  0.01620  1.0000
  C   C93       1.0  0.18450  0.44060  0.97140  1.0000
  C   C94       1.0  0.81550  0.55940  0.02860  1.0000
  H   H73       1.0  0.11080  0.41010  0.99480  1.0000
  H   H74       1.0  0.88920  0.58990  0.00520  1.0000
  H   H75       1.0  0.25820  0.40250  0.95810  1.0000
  H   H76       1.0  0.74180  0.59750  0.04190  1.0000
  H   H77       1.0  0.12130  0.45710  0.93770  1.0000
  H   H78       1.0  0.87870  0.54290  0.06230  1.0000
