data_image0
_chemical_formula_structural       Cd8O56P8C8H4C4H4C8H4C4H4C12H4C4H4C8H4C4H4C12H4C4H4C4H4C8H4C12H4C4H4C8H4C4H4C12H4C4H4C8H4C4H4C12H4C4H4C8H4C4H4C4
_chemical_formula_sum              "Cd8 O56 P8 C168 H96"
_cell_length_a       15.135
_cell_length_b       22.028
_cell_length_c       18.37
_cell_angle_alpha    90
_cell_angle_beta     101.248
_cell_angle_gamma    90

_space_group_name_H-M_alt    "P 1"
_space_group_IT_number       1

loop_
  _space_group_symop_operation_xyz
  'x, y, z'

loop_
  _atom_site_type_symbol
  _atom_site_label
  _atom_site_symmetry_multiplicity
  _atom_site_fract_x
  _atom_site_fract_y
  _atom_site_fract_z
  _atom_site_occupancy
  Cd  Cd1       1.0  0.37486  0.40362  0.14368  1.0000
  Cd  Cd2       1.0  0.62514  0.90362  0.35632  1.0000
  Cd  Cd3       1.0  0.62514  0.59638  0.85632  1.0000
  Cd  Cd4       1.0  0.37486  0.09638  0.64368  1.0000
  Cd  Cd5       1.0  0.88815  0.90534  0.88813  1.0000
  Cd  Cd6       1.0  0.11185  0.40534  0.61187  1.0000
  Cd  Cd7       1.0  0.11185  0.09466  0.11187  1.0000
  Cd  Cd8       1.0  0.88815  0.59466  0.38813  1.0000
  O   O1        1.0  0.90250  0.62604  0.27310  1.0000
  O   O2        1.0  0.09750  0.12604  0.22690  1.0000
  O   O3        1.0  0.09750  0.37396  0.72690  1.0000
  O   O4        1.0  0.90250  0.87396  0.77310  1.0000
  O   O5        1.0  0.36560  0.12850  0.75958  1.0000
  O   O6        1.0  0.63440  0.62850  0.74042  1.0000
  O   O7        1.0  0.63440  0.87150  0.24042  1.0000
  O   O8        1.0  0.36560  0.37150  0.25958  1.0000
  O   O9        1.0  0.91210  0.86319  0.00980  1.0000
  O   O10       1.0  0.08790  0.36319  0.49020  1.0000
  O   O11       1.0  0.08790  0.13681  0.99020  1.0000
  O   O12       1.0  0.91210  0.63681  0.50980  1.0000
  O   O13       1.0  0.87360  0.80217  0.91460  1.0000
  O   O14       1.0  0.12640  0.30217  0.58540  1.0000
  O   O15       1.0  0.12640  0.19783  0.08540  1.0000
  O   O16       1.0  0.87360  0.69783  0.41460  1.0000
  O   O17       1.0  0.53390  0.40940  0.18440  1.0000
  O   O18       1.0  0.46610  0.90940  0.31560  1.0000
  O   O19       1.0  0.46610  0.59060  0.81560  1.0000
  O   O20       1.0  0.53390  0.09060  0.68440  1.0000
  O   O21       1.0  0.46840  0.48290  0.11240  1.0000
  O   O22       1.0  0.53160  0.98290  0.38760  1.0000
  O   O23       1.0  0.53160  0.51710  0.88760  1.0000
  O   O24       1.0  0.46840  0.01710  0.61240  1.0000
  O   O25       1.0  0.21350  0.41610  0.11200  1.0000
  O   O26       1.0  0.78650  0.91610  0.38800  1.0000
  O   O27       1.0  0.78650  0.58390  0.88800  1.0000
  O   O28       1.0  0.21350  0.08390  0.61200  1.0000
  O   O29       1.0  0.29480  0.49032  0.16760  1.0000
  O   O30       1.0  0.70520  0.99032  0.33240  1.0000
  O   O31       1.0  0.70520  0.50968  0.83240  1.0000
  O   O32       1.0  0.29480  0.00968  0.66760  1.0000
  O   O33       1.0  0.79270  0.98183  0.91550  1.0000
  O   O34       1.0  0.20730  0.48183  0.58450  1.0000
  O   O35       1.0  0.20730  0.01817  0.08450  1.0000
  O   O36       1.0  0.79270  0.51817  0.41550  1.0000
  O   O37       1.0  0.72500  0.90410  0.85440  1.0000
  O   O38       1.0  0.27500  0.40410  0.64560  1.0000
  O   O39       1.0  0.27500  0.09590  0.14560  1.0000
  O   O40       1.0  0.72500  0.59590  0.35440  1.0000
  O   O41       1.0  0.36390  0.29896  0.11500  1.0000
  O   O42       1.0  0.63610  0.79896  0.38500  1.0000
  O   O43       1.0  0.63610  0.70104  0.88500  1.0000
  O   O44       1.0  0.36390  0.20104  0.61500  1.0000
  O   O45       1.0  0.39010  0.36104  0.02800  1.0000
  O   O46       1.0  0.60990  0.86104  0.47200  1.0000
  O   O47       1.0  0.60990  0.63896  0.97200  1.0000
  O   O48       1.0  0.39010  0.13896  0.52800  1.0000
  O   O49       1.0  0.96400  0.99408  0.85950  1.0000
  O   O50       1.0  0.03600  0.49408  0.64050  1.0000
  O   O51       1.0  0.03600  0.00592  0.14050  1.0000
  O   O52       1.0  0.96400  0.50592  0.35950  1.0000
  O   O53       1.0  0.04580  0.91949  0.91690  1.0000
  O   O54       1.0  0.95420  0.41949  0.58310  1.0000
  O   O55       1.0  0.95420  0.08051  0.08310  1.0000
  O   O56       1.0  0.04580  0.58051  0.41690  1.0000
  P   P1        1.0  0.88735  0.60100  0.19634  1.0000
  P   P2        1.0  0.11265  0.10100  0.30366  1.0000
  P   P3        1.0  0.11265  0.39900  0.80366  1.0000
  P   P4        1.0  0.88735  0.89900  0.69634  1.0000
  P   P5        1.0  0.37527  0.10004  0.83477  1.0000
  P   P6        1.0  0.62473  0.60004  0.66523  1.0000
  P   P7        1.0  0.62473  0.89996  0.16523  1.0000
  P   P8        1.0  0.37527  0.39996  0.33477  1.0000
  C   C1        1.0  0.88080  0.66280  0.13030  1.0000
  C   C2        1.0  0.11920  0.16280  0.36970  1.0000
  C   C3        1.0  0.11920  0.33720  0.86970  1.0000
  C   C4        1.0  0.88080  0.83720  0.63030  1.0000
  C   C5        1.0  0.86060  0.65370  0.05490  1.0000
  C   C6        1.0  0.13940  0.15370  0.44510  1.0000
  C   C7        1.0  0.13940  0.34630  0.94510  1.0000
  C   C8        1.0  0.86060  0.84630  0.55490  1.0000
  H   H1        1.0  0.84490  0.61530  0.03560  1.0000
  H   H2        1.0  0.15510  0.11530  0.46440  1.0000
  H   H3        1.0  0.15510  0.38470  0.96440  1.0000
  H   H4        1.0  0.84490  0.88470  0.53560  1.0000
  C   C9        1.0  0.86400  0.70210  0.00820  1.0000
  C   C10       1.0  0.13600  0.20210  0.49180  1.0000
  C   C11       1.0  0.13600  0.29790  0.99180  1.0000
  C   C12       1.0  0.86400  0.79790  0.50820  1.0000
  H   H5        1.0  0.85200  0.69570  0.95720  1.0000
  H   H6        1.0  0.14800  0.19570  0.54280  1.0000
  H   H7        1.0  0.14800  0.30430  0.04280  1.0000
  H   H8        1.0  0.85200  0.80430  0.45720  1.0000
  C   C13       1.0  0.88440  0.75900  0.03480  1.0000
  C   C14       1.0  0.11560  0.25900  0.46520  1.0000
  C   C15       1.0  0.11560  0.24100  0.96520  1.0000
  C   C16       1.0  0.88440  0.74100  0.53480  1.0000
  C   C17       1.0  0.90040  0.76780  0.11050  1.0000
  C   C18       1.0  0.09960  0.26780  0.38950  1.0000
  C   C19       1.0  0.09960  0.23220  0.88950  1.0000
  C   C20       1.0  0.90040  0.73220  0.61050  1.0000
  H   H9        1.0  0.91200  0.80680  0.12930  1.0000
  H   H10       1.0  0.08800  0.30680  0.37070  1.0000
  H   H11       1.0  0.08800  0.19320  0.87070  1.0000
  H   H12       1.0  0.91200  0.69320  0.62930  1.0000
  C   C21       1.0  0.89950  0.72100  0.15780  1.0000
  C   C22       1.0  0.10050  0.22100  0.34220  1.0000
  C   C23       1.0  0.10050  0.27900  0.84220  1.0000
  C   C24       1.0  0.89950  0.77900  0.65780  1.0000
  H   H13       1.0  0.91150  0.72770  0.20880  1.0000
  H   H14       1.0  0.08850  0.22770  0.29120  1.0000
  H   H15       1.0  0.08850  0.27230  0.79120  1.0000
  H   H16       1.0  0.91150  0.77230  0.70880  1.0000
  C   C25       1.0  0.89080  0.81110  0.98330  1.0000
  C   C26       1.0  0.10920  0.31110  0.51670  1.0000
  C   C27       1.0  0.10920  0.18890  0.01670  1.0000
  C   C28       1.0  0.89080  0.68890  0.48330  1.0000
  C   C29       1.0  0.78880  0.55660  0.17500  1.0000
  C   C30       1.0  0.21120  0.05660  0.32500  1.0000
  C   C31       1.0  0.21120  0.44340  0.82500  1.0000
  C   C32       1.0  0.78880  0.94340  0.67500  1.0000
  C   C33       1.0  0.78400  0.50340  0.21350  1.0000
  C   C34       1.0  0.21600  0.00340  0.28650  1.0000
  C   C35       1.0  0.21600  0.49660  0.78650  1.0000
  C   C36       1.0  0.78400  0.99660  0.71350  1.0000
  H   H17       1.0  0.83530  0.48860  0.24470  1.0000
  H   H18       1.0  0.16470  0.98860  0.25530  1.0000
  H   H19       1.0  0.16470  0.51140  0.75530  1.0000
  H   H20       1.0  0.83530  0.01140  0.74470  1.0000
  C   C37       1.0  0.70200  0.47100  0.20610  1.0000
  C   C38       1.0  0.29800  0.97100  0.29390  1.0000
  C   C39       1.0  0.29800  0.52900  0.79390  1.0000
  C   C40       1.0  0.70200  0.02900  0.70610  1.0000
  H   H21       1.0  0.69930  0.43550  0.23290  1.0000
  H   H22       1.0  0.30070  0.93550  0.26710  1.0000
  H   H23       1.0  0.30070  0.56450  0.76710  1.0000
  H   H24       1.0  0.69930  0.06450  0.73290  1.0000
  C   C41       1.0  0.62690  0.49220  0.15950  1.0000
  C   C42       1.0  0.37310  0.99220  0.34050  1.0000
  C   C43       1.0  0.37310  0.50780  0.84050  1.0000
  C   C44       1.0  0.62690  0.00780  0.65950  1.0000
  C   C45       1.0  0.63020  0.54680  0.12030  1.0000
  C   C46       1.0  0.36980  0.04680  0.37970  1.0000
  C   C47       1.0  0.36980  0.45320  0.87970  1.0000
  C   C48       1.0  0.63020  0.95320  0.62030  1.0000
  H   H25       1.0  0.57850  0.56200  0.09000  1.0000
  H   H26       1.0  0.42150  0.06200  0.41000  1.0000
  H   H27       1.0  0.42150  0.43800  0.91000  1.0000
  H   H28       1.0  0.57850  0.93800  0.59000  1.0000
  C   C49       1.0  0.71130  0.57750  0.12720  1.0000
  C   C50       1.0  0.28870  0.07750  0.37280  1.0000
  C   C51       1.0  0.28870  0.42250  0.87280  1.0000
  C   C52       1.0  0.71130  0.92250  0.62720  1.0000
  H   H29       1.0  0.71420  0.61270  0.09980  1.0000
  H   H30       1.0  0.28580  0.11270  0.40020  1.0000
  H   H31       1.0  0.28580  0.38730  0.90020  1.0000
  H   H32       1.0  0.71420  0.88730  0.59980  1.0000
  C   C53       1.0  0.53610  0.45940  0.15040  1.0000
  C   C54       1.0  0.46390  0.95940  0.34960  1.0000
  C   C55       1.0  0.46390  0.54060  0.84960  1.0000
  C   C56       1.0  0.53610  0.04060  0.65040  1.0000
  C   C57       1.0  0.98130  0.55770  0.17990  1.0000
  C   C58       1.0  0.01870  0.05770  0.32010  1.0000
  C   C59       1.0  0.01870  0.44230  0.82010  1.0000
  C   C60       1.0  0.98130  0.94230  0.67990  1.0000
  C   C61       1.0  0.97410  0.50740  0.13210  1.0000
  C   C62       1.0  0.02590  0.00740  0.36790  1.0000
  C   C63       1.0  0.02590  0.49260  0.86790  1.0000
  C   C64       1.0  0.97410  0.99260  0.63210  1.0000
  H   H33       1.0  0.91790  0.49310  0.10880  1.0000
  H   H34       1.0  0.08210  0.99310  0.39120  1.0000
  H   H35       1.0  0.08210  0.50690  0.89120  1.0000
  H   H36       1.0  0.91790  0.00690  0.60880  1.0000
  C   C65       1.0  0.05260  0.47920  0.12020  1.0000
  C   C66       1.0  0.94740  0.97920  0.37980  1.0000
  C   C67       1.0  0.94740  0.52080  0.87980  1.0000
  C   C68       1.0  0.05260  0.02080  0.62020  1.0000
  H   H37       1.0  0.04770  0.44610  0.08830  1.0000
  H   H38       1.0  0.95230  0.94610  0.41170  1.0000
  H   H39       1.0  0.95230  0.55390  0.91170  1.0000
  H   H40       1.0  0.04770  0.05390  0.58830  1.0000
  C   C69       1.0  0.14230  0.54960  0.19950  1.0000
  C   C70       1.0  0.85770  0.04960  0.30050  1.0000
  C   C71       1.0  0.85770  0.45040  0.80050  1.0000
  C   C72       1.0  0.14230  0.95040  0.69950  1.0000
  H   H41       1.0  0.19890  0.56420  0.22150  1.0000
  H   H42       1.0  0.80110  0.06420  0.27850  1.0000
  H   H43       1.0  0.80110  0.43580  0.77850  1.0000
  H   H44       1.0  0.19890  0.93580  0.72150  1.0000
  C   C73       1.0  0.13500  0.49830  0.15300  1.0000
  C   C74       1.0  0.86500  0.99830  0.34700  1.0000
  C   C75       1.0  0.86500  0.50170  0.84700  1.0000
  C   C76       1.0  0.13500  0.00170  0.65300  1.0000
  C   C77       1.0  0.06720  0.57790  0.21240  1.0000
  C   C78       1.0  0.93280  0.07790  0.28760  1.0000
  C   C79       1.0  0.93280  0.42210  0.78760  1.0000
  C   C80       1.0  0.06720  0.92210  0.71240  1.0000
  H   H45       1.0  0.07310  0.61150  0.24360  1.0000
  H   H46       1.0  0.92690  0.11150  0.25640  1.0000
  H   H47       1.0  0.92690  0.38850  0.75640  1.0000
  H   H48       1.0  0.07310  0.88850  0.74360  1.0000
  C   C81       1.0  0.21980  0.46640  0.14280  1.0000
  C   C82       1.0  0.78020  0.96640  0.35720  1.0000
  C   C83       1.0  0.78020  0.53360  0.85720  1.0000
  C   C84       1.0  0.21980  0.03360  0.64280  1.0000
  C   C85       1.0  0.47510  0.05310  0.85690  1.0000
  C   C86       1.0  0.52490  0.55310  0.64310  1.0000
  C   C87       1.0  0.52490  0.94690  0.14310  1.0000
  C   C88       1.0  0.47510  0.44690  0.35690  1.0000
  C   C89       1.0  0.54880  0.07360  0.90440  1.0000
  C   C90       1.0  0.45120  0.57360  0.59560  1.0000
  C   C91       1.0  0.45120  0.92640  0.09560  1.0000
  C   C92       1.0  0.54880  0.42640  0.40440  1.0000
  H   H49       1.0  0.54590  0.10950  0.93060  1.0000
  H   H50       1.0  0.45410  0.60950  0.56940  1.0000
  H   H51       1.0  0.45410  0.89050  0.06940  1.0000
  H   H52       1.0  0.54590  0.39050  0.43060  1.0000
  C   C93       1.0  0.62910  0.04100  0.91390  1.0000
  C   C94       1.0  0.37090  0.54100  0.58610  1.0000
  C   C95       1.0  0.37090  0.95900  0.08610  1.0000
  C   C96       1.0  0.62910  0.45900  0.41390  1.0000
  H   H53       1.0  0.67960  0.05580  0.94620  1.0000
  H   H54       1.0  0.32040  0.55580  0.55380  1.0000
  H   H55       1.0  0.32040  0.94420  0.05380  1.0000
  H   H56       1.0  0.67960  0.44420  0.44620  1.0000
  C   C97       1.0  0.63510  0.98770  0.87690  1.0000
  C   C98       1.0  0.36490  0.48770  0.62310  1.0000
  C   C99       1.0  0.36490  0.01230  0.12310  1.0000
  C   C100      1.0  0.63510  0.51230  0.37690  1.0000
  C   C101      1.0  0.55730  0.96700  0.82970  1.0000
  C   C102      1.0  0.44270  0.46700  0.67030  1.0000
  C   C103      1.0  0.44270  0.03300  0.17030  1.0000
  C   C104      1.0  0.55730  0.53300  0.32970  1.0000
  H   H57       1.0  0.55880  0.93030  0.80510  1.0000
  H   H58       1.0  0.44120  0.43030  0.69490  1.0000
  H   H59       1.0  0.44120  0.06970  0.19490  1.0000
  H   H60       1.0  0.55880  0.56970  0.30510  1.0000
  C   C105      1.0  0.47860  0.99970  0.81880  1.0000
  C   C106      1.0  0.52140  0.49970  0.68120  1.0000
  C   C107      1.0  0.52140  0.00030  0.18120  1.0000
  C   C108      1.0  0.47860  0.50030  0.31880  1.0000
  H   H61       1.0  0.42800  0.98580  0.78590  1.0000
  H   H62       1.0  0.57200  0.48580  0.71410  1.0000
  H   H63       1.0  0.57200  0.01420  0.21410  1.0000
  H   H64       1.0  0.42800  0.51420  0.28590  1.0000
  C   C109      1.0  0.72170  0.95530  0.88250  1.0000
  C   C110      1.0  0.27830  0.45530  0.61750  1.0000
  C   C111      1.0  0.27830  0.04470  0.11750  1.0000
  C   C112      1.0  0.72170  0.54470  0.38250  1.0000
  C   C113      1.0  0.38250  0.15890  0.90300  1.0000
  C   C114      1.0  0.61750  0.65890  0.59700  1.0000
  C   C115      1.0  0.61750  0.84110  0.09700  1.0000
  C   C116      1.0  0.38250  0.34110  0.40300  1.0000
  C   C117      1.0  0.34350  0.15230  0.96560  1.0000
  C   C118      1.0  0.65650  0.65230  0.53440  1.0000
  C   C119      1.0  0.65650  0.84770  0.03440  1.0000
  C   C120      1.0  0.34350  0.34770  0.46560  1.0000
  H   H65       1.0  0.31640  0.11590  0.97460  1.0000
  H   H66       1.0  0.68360  0.61590  0.52540  1.0000
  H   H67       1.0  0.68360  0.88410  0.02540  1.0000
  H   H68       1.0  0.31640  0.38410  0.47460  1.0000
  C   C121      1.0  0.34560  0.20080  0.01390  1.0000
  C   C122      1.0  0.65440  0.70080  0.48610  1.0000
  C   C123      1.0  0.65440  0.79920  0.98610  1.0000
  C   C124      1.0  0.34560  0.29920  0.51390  1.0000
  H   H69       1.0  0.32300  0.19560  0.05710  1.0000
  H   H70       1.0  0.67700  0.69560  0.44290  1.0000
  H   H71       1.0  0.67700  0.80440  0.94290  1.0000
  H   H72       1.0  0.32300  0.30440  0.55710  1.0000
  C   C125      1.0  0.38010  0.25640  0.00000  1.0000
  C   C126      1.0  0.61990  0.75640  0.50000  1.0000
  C   C127      1.0  0.61990  0.74360  0.00000  1.0000
  C   C128      1.0  0.38010  0.24360  0.50000  1.0000
  C   C129      1.0  0.42300  0.26120  0.93930  1.0000
  C   C130      1.0  0.57700  0.76120  0.56070  1.0000
  C   C131      1.0  0.57700  0.73880  0.06070  1.0000
  C   C132      1.0  0.42300  0.23880  0.43930  1.0000
  H   H73       1.0  0.45180  0.29710  0.93080  1.0000
  H   H74       1.0  0.54820  0.79710  0.56920  1.0000
  H   H75       1.0  0.54820  0.70290  0.06920  1.0000
  H   H76       1.0  0.45180  0.20290  0.43080  1.0000
  C   C133      1.0  0.42230  0.21310  0.89310  1.0000
  C   C134      1.0  0.57770  0.71310  0.60690  1.0000
  C   C135      1.0  0.57770  0.78690  0.10690  1.0000
  C   C136      1.0  0.42230  0.28690  0.39310  1.0000
  H   H77       1.0  0.45040  0.21730  0.85260  1.0000
  H   H78       1.0  0.54960  0.71730  0.64740  1.0000
  H   H79       1.0  0.54960  0.78270  0.14740  1.0000
  H   H80       1.0  0.45040  0.28270  0.35260  1.0000
  C   C137      1.0  0.37930  0.30920  0.05000  1.0000
  C   C138      1.0  0.62070  0.80920  0.45000  1.0000
  C   C139      1.0  0.62070  0.69080  0.95000  1.0000
  C   C140      1.0  0.37930  0.19080  0.55000  1.0000
  C   C141      1.0  0.27950  0.05650  0.84600  1.0000
  C   C142      1.0  0.72050  0.55650  0.65400  1.0000
  C   C143      1.0  0.72050  0.94350  0.15400  1.0000
  C   C144      1.0  0.27950  0.44350  0.34600  1.0000
  C   C145      1.0  0.28570  0.00450  0.88930  1.0000
  C   C146      1.0  0.71430  0.50450  0.61070  1.0000
  C   C147      1.0  0.71430  0.99550  0.11070  1.0000
  C   C148      1.0  0.28570  0.49550  0.38930  1.0000
  H   H81       1.0  0.34180  0.98880  0.91070  1.0000
  H   H82       1.0  0.65820  0.48880  0.58930  1.0000
  H   H83       1.0  0.65820  0.01120  0.08930  1.0000
  H   H84       1.0  0.34180  0.51120  0.41070  1.0000
  C   C149      1.0  0.20730  0.97620  0.90060  1.0000
  C   C150      1.0  0.79270  0.47620  0.59940  1.0000
  C   C151      1.0  0.79270  0.02380  0.09940  1.0000
  C   C152      1.0  0.20730  0.52380  0.40060  1.0000
  H   H85       1.0  0.21150  0.94010  0.92740  1.0000
  H   H86       1.0  0.78850  0.44010  0.57260  1.0000
  H   H87       1.0  0.78850  0.05990  0.07260  1.0000
  H   H88       1.0  0.21150  0.55990  0.42740  1.0000
  C   C153      1.0  0.12290  0.00080  0.87260  1.0000
  C   C154      1.0  0.87710  0.50080  0.62740  1.0000
  C   C155      1.0  0.87710  0.99920  0.12740  1.0000
  C   C156      1.0  0.12290  0.49920  0.37260  1.0000
  C   C157      1.0  0.11780  0.05220  0.83020  1.0000
  C   C158      1.0  0.88220  0.55220  0.66980  1.0000
  C   C159      1.0  0.88220  0.94780  0.16980  1.0000
  C   C160      1.0  0.11780  0.44780  0.33020  1.0000
  H   H89       1.0  0.06140  0.06820  0.81010  1.0000
  H   H90       1.0  0.93860  0.56820  0.68990  1.0000
  H   H91       1.0  0.93860  0.93180  0.18990  1.0000
  H   H92       1.0  0.06140  0.43180  0.31010  1.0000
  C   C161      1.0  0.19450  0.08130  0.81620  1.0000
  C   C162      1.0  0.80550  0.58130  0.68380  1.0000
  C   C163      1.0  0.80550  0.91870  0.18380  1.0000
  C   C164      1.0  0.19450  0.41870  0.31620  1.0000
  H   H93       1.0  0.18970  0.11640  0.78760  1.0000
  H   H94       1.0  0.81030  0.61640  0.71240  1.0000
  H   H95       1.0  0.81030  0.88360  0.21240  1.0000
  H   H96       1.0  0.18970  0.38360  0.28760  1.0000
  C   C165      1.0  0.03930  0.97050  0.88380  1.0000
  C   C166      1.0  0.96070  0.47050  0.61620  1.0000
  C   C167      1.0  0.96070  0.02950  0.11620  1.0000
  C   C168      1.0  0.03930  0.52950  0.38380  1.0000
