data_image0
_chemical_formula_structural       Pb3I8O2C2H2N2C2H6C2H6
_chemical_formula_sum              "Pb3 I8 O2 C6 H14 N2"
_cell_length_a       10.5488
_cell_length_b       11.229
_cell_length_c       19.1582
_cell_angle_alpha    90.416
_cell_angle_beta     93.892
_cell_angle_gamma    97.737

_space_group_name_H-M_alt    "P 1"
_space_group_IT_number       1

loop_
  _space_group_symop_operation_xyz
  'x, y, z'

loop_
  _atom_site_type_symbol
  _atom_site_label
  _atom_site_symmetry_multiplicity
  _atom_site_fract_x
  _atom_site_fract_y
  _atom_site_fract_z
  _atom_site_occupancy
  Pb  Pb1       1.0  0.09386  0.17646  0.96584  1.0000
  Pb  Pb2       1.0  0.90614  0.82354  0.03416  1.0000
  Pb  Pb3       1.0  0.00000  0.50000  0.00000  1.0000
  I   I1        1.0  0.03238  0.37342  0.85010  1.0000
  I   I2        1.0  0.96762  0.62658  0.14990  1.0000
  I   I3        1.0  0.26310  0.40598  0.05375  1.0000
  I   I4        1.0  0.73690  0.59402  0.94625  1.0000
  I   I5        1.0  0.28998  0.07994  0.88968  1.0000
  I   I6        1.0  0.71002  0.92006  0.11032  1.0000
  I   I7        1.0  0.13490  0.01197  0.09389  1.0000
  I   I8        1.0  0.86510  0.98803  0.90611  1.0000
  O   O1        1.0  0.89090  0.29150  0.03440  1.0000
  O   O2        1.0  0.10910  0.70850  0.96560  1.0000
  C   C1        1.0  0.78250  0.23870  0.02310  1.0000
  C   C2        1.0  0.21750  0.76130  0.97690  1.0000
  H   H1        1.0  0.77300  0.17380  0.99020  1.0000
  H   H2        1.0  0.22700  0.82620  0.00980  1.0000
  N   N1        1.0  0.67900  0.26030  0.05030  1.0000
  N   N2        1.0  0.32100  0.73970  0.94970  1.0000
  C   C3        1.0  0.68340  0.35680  0.10340  1.0000
  C   C4        1.0  0.31660  0.64320  0.89660  1.0000
  H   H3        1.0  0.69040  0.32280  0.15030  1.0000
  H   H4        1.0  0.30960  0.67720  0.84970  1.0000
  H   H5        1.0  0.60480  0.39450  0.09770  1.0000
  H   H6        1.0  0.39520  0.60550  0.90230  1.0000
  H   H7        1.0  0.75790  0.41730  0.09760  1.0000
  H   H8        1.0  0.24210  0.58270  0.90240  1.0000
  C   C5        1.0  0.55260  0.19300  0.03040  1.0000
  C   C6        1.0  0.44740  0.80700  0.96960  1.0000
  H   H9        1.0  0.55960  0.13770  0.99150  1.0000
  H   H10       1.0  0.44040  0.86230  0.00850  1.0000
  H   H11       1.0  0.49270  0.24920  0.01600  1.0000
  H   H12       1.0  0.50730  0.75080  0.98400  1.0000
  H   H13       1.0  0.52100  0.14710  0.07050  1.0000
  H   H14       1.0  0.47900  0.85290  0.92950  1.0000
