data_image0
_chemical_formula_structural       Cd16C8H4C8H4C8H4C12H4C8H4C8H4C20H4C8H4C8H4C8H4C8H4C8H4C16O64S16
_chemical_formula_sum              "Cd16 C128 H48 O64 S16"
_cell_length_a       14.037
_cell_length_b       33.781
_cell_length_c       18.982
_cell_angle_alpha    90
_cell_angle_beta     103.684
_cell_angle_gamma    90

_space_group_name_H-M_alt    "P 1"
_space_group_IT_number       1

loop_
  _space_group_symop_operation_xyz
  'x, y, z'

loop_
  _atom_site_type_symbol
  _atom_site_label
  _atom_site_symmetry_multiplicity
  _atom_site_fract_x
  _atom_site_fract_y
  _atom_site_fract_z
  _atom_site_occupancy
  Cd  Cd1       1.0  0.77383  0.37892  0.50830  1.0000
  Cd  Cd2       1.0  0.22617  0.87892  0.99170  1.0000
  Cd  Cd3       1.0  0.22617  0.62108  0.49170  1.0000
  Cd  Cd4       1.0  0.77383  0.12108  0.00830  1.0000
  Cd  Cd5       1.0  0.23990  0.51701  0.47518  1.0000
  Cd  Cd6       1.0  0.76010  0.01701  0.02482  1.0000
  Cd  Cd7       1.0  0.76010  0.48299  0.52482  1.0000
  Cd  Cd8       1.0  0.23990  0.98299  0.97518  1.0000
  Cd  Cd9       1.0  0.20552  0.28269  0.80177  1.0000
  Cd  Cd10      1.0  0.79448  0.78269  0.69823  1.0000
  Cd  Cd11      1.0  0.79448  0.71731  0.19823  1.0000
  Cd  Cd12      1.0  0.20552  0.21731  0.30177  1.0000
  Cd  Cd13      1.0  0.35179  0.22288  0.72383  1.0000
  Cd  Cd14      1.0  0.64821  0.72288  0.77617  1.0000
  Cd  Cd15      1.0  0.64821  0.77712  0.27617  1.0000
  Cd  Cd16      1.0  0.35179  0.27712  0.22383  1.0000
  C   C1        1.0  0.45180  0.11568  0.82778  1.0000
  C   C2        1.0  0.54820  0.61568  0.67222  1.0000
  C   C3        1.0  0.54820  0.88432  0.17222  1.0000
  C   C4        1.0  0.45180  0.38432  0.32778  1.0000
  C   C5        1.0  0.38640  0.08882  0.84511  1.0000
  C   C6        1.0  0.61360  0.58882  0.65489  1.0000
  C   C7        1.0  0.61360  0.91118  0.15489  1.0000
  C   C8        1.0  0.38640  0.41118  0.34511  1.0000
  H   H1        1.0  0.31790  0.09370  0.83050  1.0000
  H   H2        1.0  0.68210  0.59370  0.66950  1.0000
  H   H3        1.0  0.68210  0.90630  0.16950  1.0000
  H   H4        1.0  0.31790  0.40630  0.33050  1.0000
  C   C9        1.0  0.42063  0.05464  0.88391  1.0000
  C   C10       1.0  0.57937  0.55464  0.61609  1.0000
  C   C11       1.0  0.57937  0.94536  0.11609  1.0000
  C   C12       1.0  0.42063  0.44536  0.38391  1.0000
  C   C13       1.0  0.52021  0.04682  0.90429  1.0000
  C   C14       1.0  0.47979  0.54682  0.59571  1.0000
  C   C15       1.0  0.47979  0.95318  0.09571  1.0000
  C   C16       1.0  0.52021  0.45318  0.40429  1.0000
  H   H5        1.0  0.54300  0.02320  0.93010  1.0000
  H   H6        1.0  0.45700  0.52320  0.56990  1.0000
  H   H7        1.0  0.45700  0.97680  0.06990  1.0000
  H   H8        1.0  0.54300  0.47680  0.43010  1.0000
  C   C17       1.0  0.58790  0.07366  0.88690  1.0000
  C   C18       1.0  0.41210  0.57366  0.61310  1.0000
  C   C19       1.0  0.41210  0.92634  0.11310  1.0000
  C   C20       1.0  0.58790  0.42634  0.38690  1.0000
  C   C21       1.0  0.55240  0.10778  0.84821  1.0000
  C   C22       1.0  0.44760  0.60778  0.65179  1.0000
  C   C23       1.0  0.44760  0.89222  0.15179  1.0000
  C   C24       1.0  0.55240  0.39222  0.34821  1.0000
  H   H9        1.0  0.59720  0.12590  0.83550  1.0000
  H   H10       1.0  0.40280  0.62590  0.66450  1.0000
  H   H11       1.0  0.40280  0.87410  0.16450  1.0000
  H   H12       1.0  0.59720  0.37410  0.33550  1.0000
  C   C25       1.0  0.41580  0.15298  0.79004  1.0000
  C   C26       1.0  0.58420  0.65298  0.70996  1.0000
  C   C27       1.0  0.58420  0.84702  0.20996  1.0000
  C   C28       1.0  0.41580  0.34702  0.29004  1.0000
  C   C29       1.0  0.11860  0.25219  0.61316  1.0000
  C   C30       1.0  0.88140  0.75219  0.88684  1.0000
  C   C31       1.0  0.88140  0.74781  0.38684  1.0000
  C   C32       1.0  0.11860  0.24781  0.11316  1.0000
  C   C33       1.0  0.14925  0.23917  0.55271  1.0000
  C   C34       1.0  0.85075  0.73917  0.94729  1.0000
  C   C35       1.0  0.85075  0.76083  0.44729  1.0000
  C   C36       1.0  0.14925  0.26083  0.05271  1.0000
  H   H13       1.0  0.19600  0.21840  0.55740  1.0000
  H   H14       1.0  0.80400  0.71840  0.94260  1.0000
  H   H15       1.0  0.80400  0.78160  0.44260  1.0000
  H   H16       1.0  0.19600  0.28160  0.05740  1.0000
  C   C37       1.0  0.11155  0.25644  0.48542  1.0000
  C   C38       1.0  0.88845  0.75644  0.01458  1.0000
  C   C39       1.0  0.88845  0.74356  0.51458  1.0000
  C   C40       1.0  0.11155  0.24356  0.98542  1.0000
  C   C41       1.0  0.04297  0.28660  0.47786  1.0000
  C   C42       1.0  0.95703  0.78660  0.02214  1.0000
  C   C43       1.0  0.95703  0.71340  0.52214  1.0000
  C   C44       1.0  0.04297  0.21340  0.97786  1.0000
  H   H17       1.0  0.01970  0.29910  0.43220  1.0000
  H   H18       1.0  0.98030  0.79910  0.06780  1.0000
  H   H19       1.0  0.98030  0.70090  0.56780  1.0000
  H   H20       1.0  0.01970  0.20090  0.93220  1.0000
  C   C45       1.0  0.00863  0.29835  0.53727  1.0000
  C   C46       1.0  0.99137  0.79835  0.96273  1.0000
  C   C47       1.0  0.99137  0.70165  0.46273  1.0000
  C   C48       1.0  0.00863  0.20165  0.03727  1.0000
  C   C49       1.0  0.04660  0.28128  0.60446  1.0000
  C   C50       1.0  0.95340  0.78128  0.89554  1.0000
  C   C51       1.0  0.95340  0.71872  0.39554  1.0000
  C   C52       1.0  0.04660  0.21872  0.10446  1.0000
  H   H21       1.0  0.02320  0.28960  0.64510  1.0000
  H   H22       1.0  0.97680  0.78960  0.85490  1.0000
  H   H23       1.0  0.97680  0.71040  0.35490  1.0000
  H   H24       1.0  0.02320  0.21040  0.14510  1.0000
  C   C53       1.0  0.92800  0.32862  0.52891  1.0000
  C   C54       1.0  0.07200  0.82862  0.97109  1.0000
  C   C55       1.0  0.07200  0.67138  0.47109  1.0000
  C   C56       1.0  0.92800  0.17138  0.02891  1.0000
  C   C57       1.0  0.62590  0.17422  0.98822  1.0000
  C   C58       1.0  0.37410  0.67422  0.51178  1.0000
  C   C59       1.0  0.37410  0.82578  0.01178  1.0000
  C   C60       1.0  0.62590  0.32578  0.48822  1.0000
  C   C61       1.0  0.34880  0.02795  0.90621  1.0000
  C   C62       1.0  0.65120  0.52795  0.59379  1.0000
  C   C63       1.0  0.65120  0.97205  0.09379  1.0000
  C   C64       1.0  0.34880  0.47205  0.40621  1.0000
  C   C65       1.0  0.95626  0.42128  0.62412  1.0000
  C   C66       1.0  0.04374  0.92128  0.87588  1.0000
  C   C67       1.0  0.04374  0.57872  0.37588  1.0000
  C   C68       1.0  0.95626  0.07872  0.12412  1.0000
  C   C69       1.0  0.01020  0.44281  0.58485  1.0000
  C   C70       1.0  0.98980  0.94281  0.91515  1.0000
  C   C71       1.0  0.98980  0.55719  0.41515  1.0000
  C   C72       1.0  0.01020  0.05719  0.08485  1.0000
  H   H25       1.0  0.97880  0.46280  0.55230  1.0000
  H   H26       1.0  0.02120  0.96280  0.94770  1.0000
  H   H27       1.0  0.02120  0.53720  0.44770  1.0000
  H   H28       1.0  0.97880  0.03720  0.05230  1.0000
  C   C73       1.0  0.11013  0.43542  0.59256  1.0000
  C   C74       1.0  0.88987  0.93542  0.90744  1.0000
  C   C75       1.0  0.88987  0.56458  0.40744  1.0000
  C   C76       1.0  0.11013  0.06458  0.09256  1.0000
  C   C77       1.0  0.15530  0.40534  0.63783  1.0000
  C   C78       1.0  0.84470  0.90534  0.86217  1.0000
  C   C79       1.0  0.84470  0.59466  0.36217  1.0000
  C   C80       1.0  0.15530  0.09466  0.13783  1.0000
  H   H29       1.0  0.22290  0.39980  0.64240  1.0000
  H   H30       1.0  0.77710  0.89980  0.85760  1.0000
  H   H31       1.0  0.77710  0.60020  0.35760  1.0000
  H   H32       1.0  0.22290  0.10020  0.14240  1.0000
  C   C81       1.0  0.10170  0.38334  0.67630  1.0000
  C   C82       1.0  0.89830  0.88334  0.82370  1.0000
  C   C83       1.0  0.89830  0.61666  0.32370  1.0000
  C   C84       1.0  0.10170  0.11666  0.17630  1.0000
  C   C85       1.0  0.00520  0.39157  0.67016  1.0000
  C   C86       1.0  0.99480  0.89157  0.82984  1.0000
  C   C87       1.0  0.99480  0.60843  0.32984  1.0000
  C   C88       1.0  0.00520  0.10843  0.17016  1.0000
  H   H33       1.0  0.96990  0.37670  0.69800  1.0000
  H   H34       1.0  0.03010  0.87670  0.80200  1.0000
  H   H35       1.0  0.03010  0.62330  0.30200  1.0000
  H   H36       1.0  0.96990  0.12330  0.19800  1.0000
  C   C89       1.0  0.14840  0.34951  0.72375  1.0000
  C   C90       1.0  0.85160  0.84951  0.77625  1.0000
  C   C91       1.0  0.85160  0.65049  0.27625  1.0000
  C   C92       1.0  0.14840  0.15049  0.22375  1.0000
  C   C93       1.0  0.50886  0.22301  0.91617  1.0000
  C   C94       1.0  0.49114  0.72301  0.58383  1.0000
  C   C95       1.0  0.49114  0.77699  0.08383  1.0000
  C   C96       1.0  0.50886  0.27699  0.41617  1.0000
  H   H37       1.0  0.53150  0.21540  0.87480  1.0000
  H   H38       1.0  0.46850  0.71540  0.62520  1.0000
  H   H39       1.0  0.46850  0.78460  0.12520  1.0000
  H   H40       1.0  0.53150  0.28460  0.37480  1.0000
  C   C97       1.0  0.54745  0.20493  0.98266  1.0000
  C   C98       1.0  0.45255  0.70493  0.51734  1.0000
  C   C99       1.0  0.45255  0.79507  0.01734  1.0000
  C   C100      1.0  0.54745  0.29507  0.48266  1.0000
  C   C101      1.0  0.51466  0.21545  0.04297  1.0000
  C   C102      1.0  0.48534  0.71545  0.45703  1.0000
  C   C103      1.0  0.48534  0.78455  0.95703  1.0000
  C   C104      1.0  0.51466  0.28455  0.54297  1.0000
  H   H41       1.0  0.53860  0.20210  0.08770  1.0000
  H   H42       1.0  0.46140  0.70210  0.41230  1.0000
  H   H43       1.0  0.46140  0.79790  0.91230  1.0000
  H   H44       1.0  0.53860  0.29790  0.58770  1.0000
  C   C105      1.0  0.44650  0.24569  0.03788  1.0000
  C   C106      1.0  0.55350  0.74569  0.46212  1.0000
  C   C107      1.0  0.55350  0.75431  0.96212  1.0000
  C   C108      1.0  0.44650  0.25431  0.53788  1.0000
  C   C109      1.0  0.40800  0.26415  0.97119  1.0000
  C   C110      1.0  0.59200  0.76415  0.52881  1.0000
  C   C111      1.0  0.59200  0.73585  0.02881  1.0000
  C   C112      1.0  0.40800  0.23585  0.47119  1.0000
  H   H45       1.0  0.36170  0.28500  0.96810  1.0000
  H   H46       1.0  0.63830  0.78500  0.53190  1.0000
  H   H47       1.0  0.63830  0.71500  0.03190  1.0000
  H   H48       1.0  0.36170  0.21500  0.46810  1.0000
  C   C113      1.0  0.43700  0.25226  0.91004  1.0000
  C   C114      1.0  0.56300  0.75226  0.58996  1.0000
  C   C115      1.0  0.56300  0.74774  0.08996  1.0000
  C   C116      1.0  0.43700  0.24774  0.41004  1.0000
  C   C117      1.0  0.41339  0.25858  0.10353  1.0000
  C   C118      1.0  0.58661  0.75858  0.39647  1.0000
  C   C119      1.0  0.58661  0.74142  0.89647  1.0000
  C   C120      1.0  0.41339  0.24142  0.60353  1.0000
  C   C121      1.0  0.14524  0.24221  0.42099  1.0000
  C   C122      1.0  0.85476  0.74221  0.07901  1.0000
  C   C123      1.0  0.85476  0.75779  0.57901  1.0000
  C   C124      1.0  0.14524  0.25779  0.92099  1.0000
  C   C125      1.0  0.16710  0.46026  0.55218  1.0000
  C   C126      1.0  0.83290  0.96026  0.94782  1.0000
  C   C127      1.0  0.83290  0.53974  0.44782  1.0000
  C   C128      1.0  0.16710  0.03974  0.05218  1.0000
  O   O1        1.0  0.32966  0.16468  0.79092  1.0000
  O   O2        1.0  0.67034  0.66468  0.70908  1.0000
  O   O3        1.0  0.67034  0.83532  0.20908  1.0000
  O   O4        1.0  0.32966  0.33532  0.29092  1.0000
  O   O5        1.0  0.47080  0.17329  0.76096  1.0000
  O   O6        1.0  0.52920  0.67329  0.73904  1.0000
  O   O7        1.0  0.52920  0.82671  0.23904  1.0000
  O   O8        1.0  0.47080  0.32671  0.26096  1.0000
  O   O9        1.0  0.09857  0.33190  0.76105  1.0000
  O   O10       1.0  0.90143  0.83190  0.73895  1.0000
  O   O11       1.0  0.90143  0.66810  0.23895  1.0000
  O   O12       1.0  0.09857  0.16810  0.26105  1.0000
  O   O13       1.0  0.23492  0.33968  0.72461  1.0000
  O   O14       1.0  0.76508  0.83968  0.77539  1.0000
  O   O15       1.0  0.76508  0.66032  0.27539  1.0000
  O   O16       1.0  0.23492  0.16032  0.22461  1.0000
  O   O17       1.0  0.25885  0.03661  0.89069  1.0000
  O   O18       1.0  0.74115  0.53661  0.60931  1.0000
  O   O19       1.0  0.74115  0.96339  0.10931  1.0000
  O   O20       1.0  0.25885  0.46339  0.39069  1.0000
  O   O21       1.0  0.38126  0.99802  0.94415  1.0000
  O   O22       1.0  0.61874  0.49802  0.55585  1.0000
  O   O23       1.0  0.61874  0.00198  0.05585  1.0000
  O   O24       1.0  0.38126  0.50198  0.44415  1.0000
  O   O25       1.0  0.87436  0.32798  0.57334  1.0000
  O   O26       1.0  0.12564  0.82798  0.92666  1.0000
  O   O27       1.0  0.12564  0.67202  0.42666  1.0000
  O   O28       1.0  0.87436  0.17202  0.07334  1.0000
  O   O29       1.0  0.91386  0.35252  0.47612  1.0000
  O   O30       1.0  0.08614  0.85252  0.02388  1.0000
  O   O31       1.0  0.08614  0.64748  0.52388  1.0000
  O   O32       1.0  0.91386  0.14748  0.97612  1.0000
  O   O33       1.0  0.63837  0.14962  0.03960  1.0000
  O   O34       1.0  0.36163  0.64962  0.46040  1.0000
  O   O35       1.0  0.36163  0.85038  0.96040  1.0000
  O   O36       1.0  0.63837  0.35038  0.53960  1.0000
  O   O37       1.0  0.67761  0.17388  0.94269  1.0000
  O   O38       1.0  0.32239  0.67388  0.55731  1.0000
  O   O39       1.0  0.32239  0.82612  0.05731  1.0000
  O   O40       1.0  0.67761  0.32612  0.44269  1.0000
  O   O41       1.0  0.11898  0.48504  0.50709  1.0000
  O   O42       1.0  0.88102  0.98504  0.99291  1.0000
  O   O43       1.0  0.88102  0.51496  0.49291  1.0000
  O   O44       1.0  0.11898  0.01496  0.00709  1.0000
  O   O45       1.0  0.25775  0.45699  0.56344  1.0000
  O   O46       1.0  0.74225  0.95699  0.93656  1.0000
  O   O47       1.0  0.74225  0.54301  0.43656  1.0000
  O   O48       1.0  0.25775  0.04301  0.06344  1.0000
  O   O49       1.0  0.37207  0.29119  0.10433  1.0000
  O   O50       1.0  0.62793  0.79119  0.39567  1.0000
  O   O51       1.0  0.62793  0.70881  0.89567  1.0000
  O   O52       1.0  0.37207  0.20881  0.60433  1.0000
  O   O53       1.0  0.42916  0.23537  0.15783  1.0000
  O   O54       1.0  0.57084  0.73537  0.34217  1.0000
  O   O55       1.0  0.57084  0.76463  0.84217  1.0000
  O   O56       1.0  0.42916  0.26463  0.65783  1.0000
  O   O57       1.0  0.17562  0.20721  0.41914  1.0000
  O   O58       1.0  0.82438  0.70721  0.08086  1.0000
  O   O59       1.0  0.82438  0.79279  0.58086  1.0000
  O   O60       1.0  0.17562  0.29279  0.91914  1.0000
  O   O61       1.0  0.14385  0.26586  0.36948  1.0000
  O   O62       1.0  0.85615  0.76586  0.13052  1.0000
  O   O63       1.0  0.85615  0.73414  0.63052  1.0000
  O   O64       1.0  0.14385  0.23414  0.86948  1.0000
  S   S1        1.0  0.71648  0.06565  0.91416  1.0000
  S   S2        1.0  0.28352  0.56565  0.58584  1.0000
  S   S3        1.0  0.28352  0.93435  0.08584  1.0000
  S   S4        1.0  0.71648  0.43435  0.41416  1.0000
  S   S5        1.0  0.82868  0.42822  0.61682  1.0000
  S   S6        1.0  0.17132  0.92822  0.88318  1.0000
  S   S7        1.0  0.17132  0.57178  0.38318  1.0000
  S   S8        1.0  0.82868  0.07178  0.11682  1.0000
  S   S9        1.0  0.16358  0.22935  0.69877  1.0000
  S   S10       1.0  0.83642  0.72935  0.80123  1.0000
  S   S11       1.0  0.83642  0.77065  0.30123  1.0000
  S   S12       1.0  0.16358  0.27065  0.19877  1.0000
  S   S13       1.0  0.39227  0.27666  0.82601  1.0000
  S   S14       1.0  0.60773  0.77666  0.67399  1.0000
  S   S15       1.0  0.60773  0.72334  0.17399  1.0000
  S   S16       1.0  0.39227  0.22334  0.32601  1.0000
