data_image0
_chemical_formula_structural       U8O64C16H12C4H12C16H12C4H12C16H12C4H12
_chemical_formula_sum              "U8 O64 C60 H72"
_cell_length_a       8.59
_cell_length_b       18.09
_cell_length_c       22.701
_cell_angle_alpha    90
_cell_angle_beta     90.57
_cell_angle_gamma    90

_space_group_name_H-M_alt    "P 1"
_space_group_IT_number       1

loop_
  _space_group_symop_operation_xyz
  'x, y, z'

loop_
  _atom_site_type_symbol
  _atom_site_label
  _atom_site_symmetry_multiplicity
  _atom_site_fract_x
  _atom_site_fract_y
  _atom_site_fract_z
  _atom_site_occupancy
  U   U1        1.0  0.08504  0.78585  0.43170  1.0000
  U   U2        1.0  0.08504  0.71415  0.93170  1.0000
  U   U3        1.0  0.91496  0.21415  0.56830  1.0000
  U   U4        1.0  0.91496  0.28585  0.06830  1.0000
  U   U5        1.0  0.11311  0.80377  0.75514  1.0000
  U   U6        1.0  0.11311  0.69623  0.25514  1.0000
  U   U7        1.0  0.88689  0.19623  0.24486  1.0000
  U   U8        1.0  0.88689  0.30377  0.74486  1.0000
  O   O1        1.0  0.94340  0.84780  0.40579  1.0000
  O   O2        1.0  0.94340  0.65220  0.90579  1.0000
  O   O3        1.0  0.05660  0.15220  0.59421  1.0000
  O   O4        1.0  0.05660  0.34780  0.09421  1.0000
  O   O5        1.0  0.23030  0.72450  0.45550  1.0000
  O   O6        1.0  0.23030  0.77550  0.95550  1.0000
  O   O7        1.0  0.76970  0.27550  0.54450  1.0000
  O   O8        1.0  0.76970  0.22450  0.04450  1.0000
  O   O9        1.0  0.18800  0.88020  0.49767  1.0000
  O   O10       1.0  0.18800  0.61980  0.99767  1.0000
  O   O11       1.0  0.81200  0.11980  0.50233  1.0000
  O   O12       1.0  0.81200  0.38020  0.00233  1.0000
  O   O13       1.0  0.99690  0.81580  0.53361  1.0000
  O   O14       1.0  0.99690  0.68420  0.03361  1.0000
  O   O15       1.0  0.00310  0.18420  0.46639  1.0000
  O   O16       1.0  0.00310  0.31580  0.96639  1.0000
  O   O17       1.0  0.18120  0.82780  0.65199  1.0000
  O   O18       1.0  0.18120  0.67220  0.15199  1.0000
  O   O19       1.0  0.81880  0.17220  0.34801  1.0000
  O   O20       1.0  0.81880  0.32780  0.84801  1.0000
  O   O21       1.0  0.99510  0.89440  0.68765  1.0000
  O   O22       1.0  0.99510  0.60560  0.18765  1.0000
  O   O23       1.0  0.00490  0.10560  0.31235  1.0000
  O   O24       1.0  0.00490  0.39440  0.81235  1.0000
  O   O25       1.0  0.99420  0.69800  0.35540  1.0000
  O   O26       1.0  0.99420  0.80200  0.85540  1.0000
  O   O27       1.0  0.00580  0.30200  0.64460  1.0000
  O   O28       1.0  0.00580  0.19800  0.14460  1.0000
  O   O29       1.0  0.87860  0.62500  0.29440  1.0000
  O   O30       1.0  0.87860  0.87500  0.79440  1.0000
  O   O31       1.0  0.12140  0.37500  0.70560  1.0000
  O   O32       1.0  0.12140  0.12500  0.20560  1.0000
  O   O33       1.0  0.20170  0.78280  0.33103  1.0000
  O   O34       1.0  0.20170  0.71720  0.83103  1.0000
  O   O35       1.0  0.79830  0.21720  0.66897  1.0000
  O   O36       1.0  0.79830  0.28280  0.16897  1.0000
  O   O37       1.0  0.29270  0.86820  0.38692  1.0000
  O   O38       1.0  0.29270  0.63180  0.88692  1.0000
  O   O39       1.0  0.70730  0.13180  0.61308  1.0000
  O   O40       1.0  0.70730  0.36820  0.11308  1.0000
  O   O41       1.0  0.89650  0.69990  0.46579  1.0000
  O   O42       1.0  0.89650  0.80010  0.96579  1.0000
  O   O43       1.0  0.10350  0.30010  0.53421  1.0000
  O   O44       1.0  0.10350  0.19990  0.03421  1.0000
  O   O45       1.0  0.79280  0.59040  0.47910  1.0000
  O   O46       1.0  0.79280  0.90960  0.97910  1.0000
  O   O47       1.0  0.20720  0.40960  0.52090  1.0000
  O   O48       1.0  0.20720  0.09040  0.02090  1.0000
  O   O49       1.0  0.31880  0.76970  0.22630  1.0000
  O   O50       1.0  0.31880  0.73030  0.72630  1.0000
  O   O51       1.0  0.68120  0.23030  0.77370  1.0000
  O   O52       1.0  0.68120  0.26970  0.27370  1.0000
  O   O53       1.0  0.48630  0.84940  0.19680  1.0000
  O   O54       1.0  0.48630  0.65060  0.69680  1.0000
  O   O55       1.0  0.51370  0.15060  0.80320  1.0000
  O   O56       1.0  0.51370  0.34940  0.30320  1.0000
  O   O57       1.0  0.97940  0.73610  0.73170  1.0000
  O   O58       1.0  0.97940  0.76390  0.23170  1.0000
  O   O59       1.0  0.02060  0.26390  0.26830  1.0000
  O   O60       1.0  0.02060  0.23610  0.76830  1.0000
  O   O61       1.0  0.24270  0.87180  0.77980  1.0000
  O   O62       1.0  0.24270  0.62820  0.27980  1.0000
  O   O63       1.0  0.75730  0.12820  0.22020  1.0000
  O   O64       1.0  0.75730  0.37180  0.72020  1.0000
  C   C1        1.0  0.39030  0.82850  0.23220  1.0000
  C   C2        1.0  0.39030  0.67150  0.73220  1.0000
  C   C3        1.0  0.60970  0.17150  0.76780  1.0000
  C   C4        1.0  0.60970  0.32850  0.26780  1.0000
  C   C5        1.0  0.35570  0.88040  0.28480  1.0000
  C   C6        1.0  0.35570  0.61960  0.78480  1.0000
  C   C7        1.0  0.64430  0.11960  0.71520  1.0000
  C   C8        1.0  0.64430  0.38040  0.21520  1.0000
  C   C9        1.0  0.28440  0.84140  0.33690  1.0000
  C   C10       1.0  0.28440  0.65860  0.83690  1.0000
  C   C11       1.0  0.71560  0.15860  0.66310  1.0000
  C   C12       1.0  0.71560  0.34140  0.16310  1.0000
  C   C13       1.0  0.50170  0.92150  0.30450  1.0000
  C   C14       1.0  0.50170  0.57850  0.80450  1.0000
  C   C15       1.0  0.49830  0.07850  0.69550  1.0000
  C   C16       1.0  0.49830  0.42150  0.19550  1.0000
  H   H1        1.0  0.54660  0.94630  0.27130  1.0000
  H   H2        1.0  0.54660  0.55370  0.77130  1.0000
  H   H3        1.0  0.45340  0.05370  0.72870  1.0000
  H   H4        1.0  0.45340  0.44630  0.22870  1.0000
  H   H5        1.0  0.57560  0.88700  0.32060  1.0000
  H   H6        1.0  0.57560  0.61300  0.82060  1.0000
  H   H7        1.0  0.42440  0.11300  0.67940  1.0000
  H   H8        1.0  0.42440  0.38700  0.17940  1.0000
  H   H9        1.0  0.47520  0.95730  0.33400  1.0000
  H   H10       1.0  0.47520  0.54270  0.83400  1.0000
  H   H11       1.0  0.52480  0.04270  0.66600  1.0000
  H   H12       1.0  0.52480  0.45730  0.16600  1.0000
  C   C17       1.0  0.22780  0.93480  0.26210  1.0000
  C   C18       1.0  0.22780  0.56520  0.76210  1.0000
  C   C19       1.0  0.77220  0.06520  0.73790  1.0000
  C   C20       1.0  0.77220  0.43480  0.23790  1.0000
  H   H13       1.0  0.26600  0.96160  0.22880  1.0000
  H   H14       1.0  0.26600  0.53840  0.72880  1.0000
  H   H15       1.0  0.73400  0.03840  0.77120  1.0000
  H   H16       1.0  0.73400  0.46160  0.27120  1.0000
  H   H17       1.0  0.20180  0.96890  0.29290  1.0000
  H   H18       1.0  0.20180  0.53110  0.79290  1.0000
  H   H19       1.0  0.79820  0.03110  0.70710  1.0000
  H   H20       1.0  0.79820  0.46890  0.20710  1.0000
  H   H21       1.0  0.13660  0.90740  0.25080  1.0000
  H   H22       1.0  0.13660  0.59260  0.75080  1.0000
  H   H23       1.0  0.86340  0.09260  0.74920  1.0000
  H   H24       1.0  0.86340  0.40740  0.24920  1.0000
  C   C21       1.0  0.81770  0.64550  0.44840  1.0000
  C   C22       1.0  0.81770  0.85450  0.94840  1.0000
  C   C23       1.0  0.18230  0.35450  0.55160  1.0000
  C   C24       1.0  0.18230  0.14550  0.05160  1.0000
  C   C25       1.0  0.74500  0.64870  0.38540  1.0000
  C   C26       1.0  0.74500  0.85130  0.88540  1.0000
  C   C27       1.0  0.25500  0.35130  0.61460  1.0000
  C   C28       1.0  0.25500  0.14870  0.11460  1.0000
  C   C29       1.0  0.87840  0.65630  0.34300  1.0000
  C   C30       1.0  0.87840  0.84370  0.84300  1.0000
  C   C31       1.0  0.12160  0.34370  0.65700  1.0000
  C   C32       1.0  0.12160  0.15630  0.15700  1.0000
  C   C33       1.0  0.64410  0.71800  0.38000  1.0000
  C   C34       1.0  0.64410  0.78200  0.88000  1.0000
  C   C35       1.0  0.35590  0.28200  0.62000  1.0000
  C   C36       1.0  0.35590  0.21800  0.12000  1.0000
  H   H25       1.0  0.55830  0.71450  0.40660  1.0000
  H   H26       1.0  0.55830  0.78550  0.90660  1.0000
  H   H27       1.0  0.44170  0.28550  0.59340  1.0000
  H   H28       1.0  0.44170  0.21450  0.09340  1.0000
  H   H29       1.0  0.60510  0.72220  0.34030  1.0000
  H   H30       1.0  0.60510  0.77780  0.84030  1.0000
  H   H31       1.0  0.39490  0.27780  0.65970  1.0000
  H   H32       1.0  0.39490  0.22220  0.15970  1.0000
  H   H33       1.0  0.70540  0.76080  0.38960  1.0000
  H   H34       1.0  0.70540  0.73920  0.88960  1.0000
  H   H35       1.0  0.29460  0.23920  0.61040  1.0000
  H   H36       1.0  0.29460  0.26080  0.11040  1.0000
  C   C37       1.0  0.64750  0.58060  0.37090  1.0000
  C   C38       1.0  0.64750  0.91940  0.87090  1.0000
  C   C39       1.0  0.35250  0.41940  0.62910  1.0000
  C   C40       1.0  0.35250  0.08060  0.12910  1.0000
  H   H37       1.0  0.56360  0.57670  0.39830  1.0000
  H   H38       1.0  0.56360  0.92330  0.89830  1.0000
  H   H39       1.0  0.43640  0.42330  0.60170  1.0000
  H   H40       1.0  0.43640  0.07670  0.10170  1.0000
  H   H41       1.0  0.71160  0.53720  0.37360  1.0000
  H   H42       1.0  0.71160  0.96280  0.87360  1.0000
  H   H43       1.0  0.28840  0.46280  0.62640  1.0000
  H   H44       1.0  0.28840  0.03720  0.12640  1.0000
  H   H45       1.0  0.60600  0.58490  0.33160  1.0000
  H   H46       1.0  0.60600  0.91510  0.83160  1.0000
  H   H47       1.0  0.39400  0.41510  0.66840  1.0000
  H   H48       1.0  0.39400  0.08490  0.16840  1.0000
  C   C41       1.0  0.09060  0.86930  0.53800  1.0000
  C   C42       1.0  0.09060  0.63070  0.03800  1.0000
  C   C43       1.0  0.90940  0.13070  0.46200  1.0000
  C   C44       1.0  0.90940  0.36930  0.96200  1.0000
  C   C45       1.0  0.08010  0.92280  0.58900  1.0000
  C   C46       1.0  0.08010  0.57720  0.08900  1.0000
  C   C47       1.0  0.91990  0.07720  0.41100  1.0000
  C   C48       1.0  0.91990  0.42280  0.91100  1.0000
  C   C49       1.0  0.08350  0.87870  0.64590  1.0000
  C   C50       1.0  0.08350  0.62130  0.14590  1.0000
  C   C51       1.0  0.91650  0.12130  0.35410  1.0000
  C   C52       1.0  0.91650  0.37870  0.85410  1.0000
  C   C53       1.0  0.93090  0.96710  0.58260  1.0000
  C   C54       1.0  0.93090  0.53290  0.08260  1.0000
  C   C55       1.0  0.06910  0.03290  0.41740  1.0000
  C   C56       1.0  0.06910  0.46710  0.91740  1.0000
  H   H49       1.0  0.92310  0.00130  0.61470  1.0000
  H   H50       1.0  0.92310  0.49870  0.11470  1.0000
  H   H51       1.0  0.07690  0.99870  0.38530  1.0000
  H   H52       1.0  0.07690  0.50130  0.88530  1.0000
  H   H53       1.0  0.93210  0.99390  0.54600  1.0000
  H   H54       1.0  0.93210  0.50610  0.04600  1.0000
  H   H55       1.0  0.06790  0.00610  0.45400  1.0000
  H   H56       1.0  0.06790  0.49390  0.95400  1.0000
  H   H57       1.0  0.84320  0.93430  0.58280  1.0000
  H   H58       1.0  0.84320  0.56570  0.08280  1.0000
  H   H59       1.0  0.15680  0.06570  0.41720  1.0000
  H   H60       1.0  0.15680  0.43430  0.91720  1.0000
  C   C57       1.0  0.21800  0.97610  0.59090  1.0000
  C   C58       1.0  0.21800  0.52390  0.09090  1.0000
  C   C59       1.0  0.78200  0.02390  0.40910  1.0000
  C   C60       1.0  0.78200  0.47610  0.90910  1.0000
  H   H61       1.0  0.20710  0.00910  0.62380  1.0000
  H   H62       1.0  0.20710  0.49090  0.12380  1.0000
  H   H63       1.0  0.79290  0.99090  0.37620  1.0000
  H   H64       1.0  0.79290  0.50910  0.87620  1.0000
  H   H65       1.0  0.31300  0.94860  0.59520  1.0000
  H   H66       1.0  0.31300  0.55140  0.09520  1.0000
  H   H67       1.0  0.68700  0.05140  0.40480  1.0000
  H   H68       1.0  0.68700  0.44860  0.90480  1.0000
  H   H69       1.0  0.22050  0.00420  0.55510  1.0000
  H   H70       1.0  0.22050  0.49580  0.05510  1.0000
  H   H71       1.0  0.77950  0.99580  0.44490  1.0000
  H   H72       1.0  0.77950  0.50420  0.94490  1.0000
