data_image0
_chemical_formula_structural       Mo8CuO16N2O8N2C2H2N2C2N2C2H2C2H2C4H2C2H2C2H6C4H2C2H2C4H2C2H6O2
_chemical_formula_sum              "Mo8 Cu1 O26 N8 C28 H28"
_cell_length_a       13.134
_cell_length_b       13.23
_cell_length_c       13.424
_cell_angle_alpha    118.343
_cell_angle_beta     111.601
_cell_angle_gamma    95.438

_space_group_name_H-M_alt    "P 1"
_space_group_IT_number       1

loop_
  _space_group_symop_operation_xyz
  'x, y, z'

loop_
  _atom_site_type_symbol
  _atom_site_label
  _atom_site_symmetry_multiplicity
  _atom_site_fract_x
  _atom_site_fract_y
  _atom_site_fract_z
  _atom_site_occupancy
  Mo  Mo1       1.0  0.87740  0.53989  0.01605  1.0000
  Mo  Mo2       1.0  0.12260  0.46011  0.98395  1.0000
  Mo  Mo3       1.0  0.18995  0.51491  0.28386  1.0000
  Mo  Mo4       1.0  0.81005  0.48509  0.71614  1.0000
  Mo  Mo5       1.0  0.93598  0.32470  0.05390  1.0000
  Mo  Mo6       1.0  0.06402  0.67530  0.94610  1.0000
  Mo  Mo7       1.0  0.86673  0.26878  0.75761  1.0000
  Mo  Mo8       1.0  0.13327  0.73122  0.24239  1.0000
  Cu  Cu1       1.0  0.50000  0.50000  0.50000  1.0000
  O   O1        1.0  0.31620  0.49460  0.35970  1.0000
  O   O2        1.0  0.68380  0.50540  0.64030  1.0000
  O   O3        1.0  0.13580  0.55680  0.38800  1.0000
  O   O4        1.0  0.86420  0.44320  0.61200  1.0000
  O   O5        1.0  0.03650  0.51750  0.12220  1.0000
  O   O6        1.0  0.96350  0.48250  0.87780  1.0000
  O   O7        1.0  0.77320  0.53970  0.88940  1.0000
  O   O8        1.0  0.22680  0.46030  0.11060  1.0000
  O   O9        1.0  0.00960  0.30880  0.91200  1.0000
  O   O10       1.0  0.99040  0.69120  0.08800  1.0000
  O   O11       1.0  0.82720  0.57600  0.12250  1.0000
  O   O12       1.0  0.17280  0.42400  0.87750  1.0000
  O   O13       1.0  0.78850  0.13500  0.71450  1.0000
  O   O14       1.0  0.21150  0.86500  0.28550  1.0000
  O   O15       1.0  0.83300  0.36380  0.93410  1.0000
  O   O16       1.0  0.16700  0.63620  0.06590  1.0000
  N   N1        1.0  0.44740  0.53090  0.63380  1.0000
  N   N2        1.0  0.55260  0.46910  0.36620  1.0000
  O   O17       1.0  0.09020  0.34950  0.16250  1.0000
  O   O18       1.0  0.90980  0.65050  0.83750  1.0000
  O   O19       1.0  0.75280  0.33210  0.69000  1.0000
  O   O20       1.0  0.24720  0.66790  0.31000  1.0000
  O   O21       1.0  0.92450  0.23340  0.65690  1.0000
  O   O22       1.0  0.07550  0.76660  0.34310  1.0000
  O   O23       1.0  0.87960  0.36600  0.15630  1.0000
  O   O24       1.0  0.12040  0.63400  0.84370  1.0000
  N   N3        1.0  0.43760  0.52820  0.79360  1.0000
  N   N4        1.0  0.56240  0.47180  0.20640  1.0000
  C   C1        1.0  0.50570  0.53390  0.74020  1.0000
  C   C2        1.0  0.49430  0.46610  0.25980  1.0000
  H   H1        1.0  0.58330  0.53930  0.77370  1.0000
  H   H2        1.0  0.41670  0.46070  0.22630  1.0000
  N   N5        1.0  0.57350  0.84850  0.58270  1.0000
  N   N6        1.0  0.42650  0.15150  0.41730  1.0000
  C   C3        1.0  0.54520  0.40580  0.99550  1.0000
  C   C4        1.0  0.45480  0.59420  0.00450  1.0000
  N   N7        1.0  0.56370  0.67840  0.57690  1.0000
  N   N8        1.0  0.43630  0.32160  0.42310  1.0000
  C   C5        1.0  0.51340  0.42430  0.89540  1.0000
  C   C6        1.0  0.48660  0.57570  0.10460  1.0000
  H   H3        1.0  0.52180  0.37350  0.82390  1.0000
  H   H4        1.0  0.47820  0.62650  0.17610  1.0000
  C   C7        1.0  0.66560  0.76760  0.68140  1.0000
  C   C8        1.0  0.33440  0.23240  0.31860  1.0000
  H   H5        1.0  0.72080  0.75730  0.74010  1.0000
  H   H6        1.0  0.27920  0.24270  0.25990  1.0000
  C   C9        1.0  0.45020  0.97210  0.56580  1.0000
  C   C10       1.0  0.54980  0.02790  0.43420  1.0000
  C   C11       1.0  0.41660  0.04640  0.52120  1.0000
  C   C12       1.0  0.58340  0.95360  0.47880  1.0000
  H   H7        1.0  0.36050  0.07990  0.53610  1.0000
  H   H8        1.0  0.63950  0.92010  0.46390  1.0000
  C   C13       1.0  0.32770  0.51930  0.71380  1.0000
  C   C14       1.0  0.67230  0.48070  0.28620  1.0000
  H   H9        1.0  0.26220  0.51290  0.72510  1.0000
  H   H10       1.0  0.73780  0.48710  0.27490  1.0000
  C   C15       1.0  0.39390  0.94320  0.63240  1.0000
  C   C16       1.0  0.60610  0.05680  0.36760  1.0000
  H   H11       1.0  0.33550  0.86430  0.57270  1.0000
  H   H12       1.0  0.66450  0.13570  0.42730  1.0000
  H   H13       1.0  0.35890  0.00320  0.66500  1.0000
  H   H14       1.0  0.64110  0.99680  0.33500  1.0000
  H   H15       1.0  0.45140  0.94360  0.70220  1.0000
  H   H16       1.0  0.54860  0.05640  0.29780  1.0000
  C   C17       1.0  0.46980  0.51680  0.90120  1.0000
  C   C18       1.0  0.53020  0.48320  0.09880  1.0000
  C   C19       1.0  0.33510  0.52170  0.61760  1.0000
  C   C20       1.0  0.66490  0.47830  0.38240  1.0000
  H   H17       1.0  0.27460  0.51790  0.55060  1.0000
  H   H18       1.0  0.72540  0.48210  0.44940  1.0000
  C   C21       1.0  0.67300  0.87230  0.68580  1.0000
  C   C22       1.0  0.32700  0.12770  0.31420  1.0000
  H   H19       1.0  0.73330  0.94590  0.74640  1.0000
  H   H20       1.0  0.26670  0.05410  0.25360  1.0000
  C   C23       1.0  0.53590  0.92880  0.54360  1.0000
  C   C24       1.0  0.46410  0.07120  0.45640  1.0000
  C   C25       1.0  0.51190  0.73160  0.52030  1.0000
  C   C26       1.0  0.48810  0.26840  0.47970  1.0000
  H   H21       1.0  0.44110  0.69210  0.44590  1.0000
  H   H22       1.0  0.55890  0.30790  0.55410  1.0000
  C   C27       1.0  0.58810  0.29870  0.97810  1.0000
  C   C28       1.0  0.41190  0.70130  0.02190  1.0000
  H   H23       1.0  0.66940  0.32820  0.03680  1.0000
  H   H24       1.0  0.33060  0.67180  0.96320  1.0000
  H   H25       1.0  0.57590  0.24970  0.89160  1.0000
  H   H26       1.0  0.42410  0.75030  0.10840  1.0000
  H   H27       1.0  0.54610  0.25040  0.99480  1.0000
  H   H28       1.0  0.45390  0.74960  0.00520  1.0000
  O   O25       1.0  0.88720  0.16860  0.95980  1.0000
  O   O26       1.0  0.11280  0.83140  0.04020  1.0000
