data_image0
_chemical_formula_structural       CoS2O8N2CHCHC2HCHCHCHC2HCHOH2OH2
_chemical_formula_sum              "Co1 S2 O10 N2 C10 H12"
_cell_length_a       7.286
_cell_length_b       11.246
_cell_length_c       11.462
_cell_angle_alpha    72.21
_cell_angle_beta     73.57
_cell_angle_gamma    83.5

_space_group_name_H-M_alt    "P 1"
_space_group_IT_number       1

loop_
  _space_group_symop_operation_xyz
  'x, y, z'

loop_
  _atom_site_type_symbol
  _atom_site_label
  _atom_site_symmetry_multiplicity
  _atom_site_fract_x
  _atom_site_fract_y
  _atom_site_fract_z
  _atom_site_occupancy
  Co  Co1       1.0  0.50218  0.00192  0.71794  1.0000
  S   S1        1.0  0.91175  0.99039  0.49236  1.0000
  S   S2        1.0  0.09428  0.99837  0.95204  1.0000
  O   O1        1.0  0.98060  0.91580  0.60120  1.0000
  O   O2        1.0  0.93830  0.91670  0.40290  1.0000
  O   O3        1.0  0.01650  0.10520  0.42980  1.0000
  O   O4        1.0  0.70350  0.02260  0.53450  1.0000
  O   O5        1.0  0.06840  0.07970  0.03510  1.0000
  O   O6        1.0  0.01290  0.06260  0.84460  1.0000
  O   O7        1.0  0.99590  0.88080  0.02450  1.0000
  O   O8        1.0  0.30170  0.96970  0.90570  1.0000
  N   N1        1.0  0.47330  0.81530  0.72660  1.0000
  N   N2        1.0  0.52820  0.18590  0.71580  1.0000
  C   C1        1.0  0.49270  0.72110  0.82600  1.0000
  H   H1        1.0  0.49820  0.73920  0.89890  1.0000
  C   C2        1.0  0.50520  0.59760  0.82660  1.0000
  H   H2        1.0  0.52110  0.53500  0.89820  1.0000
  C   C3        1.0  0.49420  0.56700  0.72140  1.0000
  C   C4        1.0  0.46200  0.66500  0.62000  1.0000
  H   H3        1.0  0.44510  0.64900  0.54870  1.0000
  C   C5        1.0  0.45530  0.78590  0.62610  1.0000
  H   H4        1.0  0.43730  0.85050  0.55650  1.0000
  C   C6        1.0  0.52530  0.21630  0.82030  1.0000
  H   H5        1.0  0.53070  0.15230  0.89330  1.0000
  C   C7        1.0  0.51480  0.33760  0.82510  1.0000
  H   H6        1.0  0.50940  0.35390  0.90080  1.0000
  C   C8        1.0  0.51210  0.43550  0.71740  1.0000
  C   C9        1.0  0.52340  0.40400  0.60750  1.0000
  H   H7        1.0  0.52780  0.46620  0.53160  1.0000
  C   C10       1.0  0.52800  0.27970  0.61160  1.0000
  H   H8        1.0  0.53100  0.26050  0.53770  1.0000
  O   O9        1.0  0.28060  0.06890  0.62830  1.0000
  H   H9        1.0  0.18750  0.06560  0.68890  1.0000
  H   H10       1.0  0.25610  0.04500  0.57410  1.0000
  O   O10       1.0  0.73020  0.94060  0.80920  1.0000
  H   H11       1.0  0.81670  0.91640  0.75750  1.0000
  H   H12       1.0  0.76910  0.99280  0.83190  1.0000
