data_image0
_chemical_formula_structural       U8O64C4H4C4H8C4H8C4H4C4H8C4H8C12H4C4H8C4H8C4H4C4H8C4H8C12H4C4H8C4H8C4H4C4H8C4H8C8
_chemical_formula_sum              "U8 O64 C96 H120"
_cell_length_a       14.814
_cell_length_b       13.9212
_cell_length_c       28.5654
_cell_angle_alpha    90
_cell_angle_beta     92.058
_cell_angle_gamma    90

_space_group_name_H-M_alt    "P 1"
_space_group_IT_number       1

loop_
  _space_group_symop_operation_xyz
  'x, y, z'

loop_
  _atom_site_type_symbol
  _atom_site_label
  _atom_site_symmetry_multiplicity
  _atom_site_fract_x
  _atom_site_fract_y
  _atom_site_fract_z
  _atom_site_occupancy
  U   U1        1.0  0.40379  0.16050  0.31642  1.0000
  U   U2        1.0  0.09621  0.66050  0.18358  1.0000
  U   U3        1.0  0.59621  0.83950  0.68358  1.0000
  U   U4        1.0  0.90379  0.33950  0.81642  1.0000
  U   U5        1.0  0.86621  0.23109  0.50543  1.0000
  U   U6        1.0  0.63379  0.73109  0.99457  1.0000
  U   U7        1.0  0.13379  0.76891  0.49457  1.0000
  U   U8        1.0  0.36621  0.26891  0.00543  1.0000
  O   O1        1.0  0.42700  0.06020  0.35289  1.0000
  O   O2        1.0  0.07300  0.56020  0.14711  1.0000
  O   O3        1.0  0.57300  0.93980  0.64711  1.0000
  O   O4        1.0  0.92700  0.43980  0.85289  1.0000
  O   O5        1.0  0.38130  0.26210  0.28038  1.0000
  O   O6        1.0  0.11870  0.76210  0.21962  1.0000
  O   O7        1.0  0.61870  0.73790  0.71962  1.0000
  O   O8        1.0  0.88130  0.23790  0.78038  1.0000
  O   O9        1.0  0.74760  0.22010  0.50174  1.0000
  O   O10       1.0  0.75240  0.72010  0.99826  1.0000
  O   O11       1.0  0.25240  0.77990  0.49826  1.0000
  O   O12       1.0  0.24760  0.27990  0.00174  1.0000
  O   O13       1.0  0.98460  0.24200  0.50918  1.0000
  O   O14       1.0  0.51540  0.74200  0.99082  1.0000
  O   O15       1.0  0.01540  0.75800  0.49082  1.0000
  O   O16       1.0  0.48460  0.25800  0.00918  1.0000
  O   O17       1.0  0.52880  0.26000  0.35549  1.0000
  O   O18       1.0  0.97120  0.76000  0.14451  1.0000
  O   O19       1.0  0.47120  0.74000  0.64451  1.0000
  O   O20       1.0  0.02880  0.24000  0.85549  1.0000
  O   O21       1.0  0.56020  0.17120  0.29497  1.0000
  O   O22       1.0  0.93980  0.67120  0.20503  1.0000
  O   O23       1.0  0.43980  0.82880  0.70503  1.0000
  O   O24       1.0  0.06020  0.32880  0.79497  1.0000
  O   O25       1.0  0.87320  0.19450  0.42110  1.0000
  O   O26       1.0  0.62680  0.69450  0.07890  1.0000
  O   O27       1.0  0.12680  0.80550  0.57890  1.0000
  O   O28       1.0  0.37320  0.30550  0.92110  1.0000
  O   O29       1.0  0.86190  0.34520  0.44068  1.0000
  O   O30       1.0  0.63810  0.84520  0.05932  1.0000
  O   O31       1.0  0.13810  0.65480  0.55932  1.0000
  O   O32       1.0  0.36190  0.15480  0.94068  1.0000
  O   O33       1.0  0.44240  0.06310  0.24851  1.0000
  O   O34       1.0  0.05760  0.56310  0.25149  1.0000
  O   O35       1.0  0.55760  0.93690  0.75149  1.0000
  O   O36       1.0  0.94240  0.43690  0.74851  1.0000
  O   O37       1.0  0.30080  0.06390  0.26630  1.0000
  O   O38       1.0  0.19920  0.56390  0.23370  1.0000
  O   O39       1.0  0.69920  0.93610  0.73370  1.0000
  O   O40       1.0  0.80080  0.43610  0.76630  1.0000
  O   O41       1.0  0.35030  0.10190  0.02993  1.0000
  O   O42       1.0  0.14970  0.60190  0.47007  1.0000
  O   O43       1.0  0.64970  0.89810  0.97007  1.0000
  O   O44       1.0  0.85030  0.39810  0.52993  1.0000
  O   O45       1.0  0.36310  0.20860  0.08652  1.0000
  O   O46       1.0  0.13690  0.70860  0.41348  1.0000
  O   O47       1.0  0.63690  0.79140  0.91348  1.0000
  O   O48       1.0  0.86310  0.29140  0.58652  1.0000
  O   O49       1.0  0.24560  0.17110  0.33959  1.0000
  O   O50       1.0  0.25440  0.67110  0.16041  1.0000
  O   O51       1.0  0.75440  0.82890  0.66041  1.0000
  O   O52       1.0  0.74560  0.32890  0.83959  1.0000
  O   O53       1.0  0.34700  0.23990  0.38575  1.0000
  O   O54       1.0  0.15300  0.73990  0.11425  1.0000
  O   O55       1.0  0.65300  0.76010  0.61425  1.0000
  O   O56       1.0  0.84700  0.26010  0.88575  1.0000
  O   O57       1.0  0.12660  0.90360  0.43771  1.0000
  O   O58       1.0  0.37340  0.40360  0.06229  1.0000
  O   O59       1.0  0.87340  0.09640  0.56229  1.0000
  O   O60       1.0  0.62660  0.59640  0.93771  1.0000
  O   O61       1.0  0.11690  0.94070  0.51123  1.0000
  O   O62       1.0  0.38310  0.44070  0.98877  1.0000
  O   O63       1.0  0.88310  0.05930  0.48877  1.0000
  O   O64       1.0  0.61690  0.55930  0.01123  1.0000
  C   C1        1.0  0.67720  0.27420  0.32250  1.0000
  C   C2        1.0  0.82280  0.77420  0.17750  1.0000
  C   C3        1.0  0.32280  0.72580  0.67750  1.0000
  C   C4        1.0  0.17720  0.22580  0.82250  1.0000
  H   H1        1.0  0.68270  0.30030  0.29010  1.0000
  H   H2        1.0  0.81730  0.80030  0.20990  1.0000
  H   H3        1.0  0.31730  0.69970  0.70990  1.0000
  H   H4        1.0  0.18270  0.19970  0.79010  1.0000
  C   C5        1.0  0.74670  0.19400  0.32860  1.0000
  C   C6        1.0  0.75330  0.69400  0.17140  1.0000
  C   C7        1.0  0.25330  0.80600  0.67140  1.0000
  C   C8        1.0  0.24670  0.30600  0.82860  1.0000
  H   H5        1.0  0.74030  0.16400  0.35970  1.0000
  H   H6        1.0  0.75970  0.66400  0.14030  1.0000
  H   H7        1.0  0.25970  0.83600  0.64030  1.0000
  H   H8        1.0  0.24030  0.33600  0.85970  1.0000
  H   H9        1.0  0.73430  0.14410  0.30460  1.0000
  H   H10       1.0  0.76570  0.64410  0.19540  1.0000
  H   H11       1.0  0.26570  0.85590  0.69540  1.0000
  H   H12       1.0  0.23430  0.35590  0.80460  1.0000
  C   C9        1.0  0.84300  0.22950  0.32460  1.0000
  C   C10       1.0  0.65700  0.72950  0.17540  1.0000
  C   C11       1.0  0.15700  0.77050  0.67540  1.0000
  C   C12       1.0  0.34300  0.27050  0.82460  1.0000
  H   H13       1.0  0.85210  0.25130  0.29210  1.0000
  H   H14       1.0  0.64790  0.75130  0.20790  1.0000
  H   H15       1.0  0.14790  0.74870  0.70790  1.0000
  H   H16       1.0  0.35210  0.24870  0.79210  1.0000
  H   H17       1.0  0.88540  0.17600  0.33140  1.0000
  H   H18       1.0  0.61460  0.67600  0.16860  1.0000
  H   H19       1.0  0.11460  0.82400  0.66860  1.0000
  H   H20       1.0  0.38540  0.32400  0.83140  1.0000
  C   C13       1.0  0.86350  0.31240  0.35850  1.0000
  C   C14       1.0  0.63650  0.81240  0.14150  1.0000
  C   C15       1.0  0.13650  0.68760  0.64150  1.0000
  C   C16       1.0  0.36350  0.18760  0.85850  1.0000
  H   H21       1.0  0.92430  0.33860  0.35140  1.0000
  H   H22       1.0  0.57570  0.83860  0.14860  1.0000
  H   H23       1.0  0.07570  0.66140  0.64860  1.0000
  H   H24       1.0  0.42430  0.16140  0.85140  1.0000
  C   C17       1.0  0.79390  0.39340  0.35090  1.0000
  C   C18       1.0  0.70610  0.89340  0.14910  1.0000
  C   C19       1.0  0.20610  0.60660  0.64910  1.0000
  C   C20       1.0  0.29390  0.10660  0.85090  1.0000
  H   H25       1.0  0.80670  0.44560  0.37380  1.0000
  H   H26       1.0  0.69330  0.94560  0.12620  1.0000
  H   H27       1.0  0.19330  0.55440  0.62620  1.0000
  H   H28       1.0  0.30670  0.05440  0.87380  1.0000
  H   H29       1.0  0.79920  0.42040  0.31900  1.0000
  H   H30       1.0  0.70080  0.92040  0.18100  1.0000
  H   H31       1.0  0.20080  0.57960  0.68100  1.0000
  H   H32       1.0  0.29920  0.07960  0.81900  1.0000
  C   C21       1.0  0.69850  0.35620  0.35670  1.0000
  C   C22       1.0  0.80150  0.85620  0.14330  1.0000
  C   C23       1.0  0.30150  0.64380  0.64330  1.0000
  C   C24       1.0  0.19850  0.14380  0.85670  1.0000
  H   H33       1.0  0.65490  0.40920  0.35100  1.0000
  H   H34       1.0  0.84510  0.90920  0.14900  1.0000
  H   H35       1.0  0.34510  0.59080  0.64900  1.0000
  H   H36       1.0  0.15490  0.09080  0.85100  1.0000
  H   H37       1.0  0.69210  0.33330  0.38920  1.0000
  H   H38       1.0  0.80790  0.83330  0.11080  1.0000
  H   H39       1.0  0.30790  0.66670  0.61080  1.0000
  H   H40       1.0  0.19210  0.16670  0.88920  1.0000
  C   C25       1.0  0.58340  0.23430  0.32570  1.0000
  C   C26       1.0  0.91660  0.73430  0.17430  1.0000
  C   C27       1.0  0.41660  0.76570  0.67430  1.0000
  C   C28       1.0  0.08340  0.26570  0.82570  1.0000
  C   C29       1.0  0.86580  0.28310  0.40930  1.0000
  C   C30       1.0  0.63420  0.78310  0.09070  1.0000
  C   C31       1.0  0.13420  0.71690  0.59070  1.0000
  C   C32       1.0  0.36580  0.21690  0.90930  1.0000
  C   C33       1.0  0.34220  0.95900  0.20420  1.0000
  C   C34       1.0  0.15780  0.45900  0.29580  1.0000
  C   C35       1.0  0.65780  0.04100  0.79580  1.0000
  C   C36       1.0  0.84220  0.54100  0.70420  1.0000
  H   H41       1.0  0.33230  0.89680  0.22070  1.0000
  H   H42       1.0  0.16770  0.39680  0.27930  1.0000
  H   H43       1.0  0.66770  0.10320  0.77930  1.0000
  H   H44       1.0  0.83230  0.60320  0.72070  1.0000
  C   C37       1.0  0.25370  0.98260  0.17620  1.0000
  C   C38       1.0  0.24630  0.48260  0.32380  1.0000
  C   C39       1.0  0.74630  0.01740  0.82380  1.0000
  C   C40       1.0  0.75370  0.51740  0.67620  1.0000
  H   H45       1.0  0.23340  0.92530  0.15810  1.0000
  H   H46       1.0  0.26660  0.42530  0.34190  1.0000
  H   H47       1.0  0.76660  0.07470  0.84190  1.0000
  H   H48       1.0  0.73340  0.57470  0.65810  1.0000
  H   H49       1.0  0.20590  0.99950  0.19810  1.0000
  H   H50       1.0  0.29410  0.49950  0.30190  1.0000
  H   H51       1.0  0.79410  0.00050  0.80190  1.0000
  H   H52       1.0  0.70590  0.50050  0.69810  1.0000
  C   C41       1.0  0.26790  0.06550  0.14293  1.0000
  C   C42       1.0  0.23210  0.56550  0.35707  1.0000
  C   C43       1.0  0.73210  0.93450  0.85707  1.0000
  C   C44       1.0  0.76790  0.43450  0.64293  1.0000
  H   H53       1.0  0.28420  0.12380  0.16110  1.0000
  H   H54       1.0  0.21580  0.62380  0.33890  1.0000
  H   H55       1.0  0.71580  0.87620  0.83890  1.0000
  H   H56       1.0  0.78420  0.37620  0.66110  1.0000
  H   H57       1.0  0.21100  0.07860  0.12480  1.0000
  H   H58       1.0  0.28900  0.57860  0.37520  1.0000
  H   H59       1.0  0.78900  0.92140  0.87520  1.0000
  H   H60       1.0  0.71100  0.42140  0.62480  1.0000
  C   C45       1.0  0.34300  0.04250  0.10910  1.0000
  C   C46       1.0  0.15700  0.54250  0.39090  1.0000
  C   C47       1.0  0.65700  0.95750  0.89090  1.0000
  C   C48       1.0  0.84300  0.45750  0.60910  1.0000
  H   H61       1.0  0.32620  0.98220  0.09180  1.0000
  H   H62       1.0  0.17380  0.48220  0.40820  1.0000
  H   H63       1.0  0.67380  0.01780  0.90820  1.0000
  H   H64       1.0  0.82620  0.51780  0.59180  1.0000
  C   C49       1.0  0.43220  0.02490  0.13650  1.0000
  C   C50       1.0  0.06780  0.52490  0.36350  1.0000
  C   C51       1.0  0.56780  0.97510  0.86350  1.0000
  C   C52       1.0  0.93220  0.47510  0.63650  1.0000
  H   H65       1.0  0.47990  0.00830  0.11450  1.0000
  H   H66       1.0  0.02010  0.50830  0.38550  1.0000
  H   H67       1.0  0.52010  0.99170  0.88550  1.0000
  H   H68       1.0  0.97990  0.49170  0.61450  1.0000
  H   H69       1.0  0.45080  0.08420  0.15340  1.0000
  H   H70       1.0  0.04920  0.58420  0.34660  1.0000
  H   H71       1.0  0.54920  0.91580  0.84660  1.0000
  H   H72       1.0  0.95080  0.41580  0.65340  1.0000
  C   C53       1.0  0.42130  0.94340  0.17140  1.0000
  C   C54       1.0  0.07870  0.44340  0.32860  1.0000
  C   C55       1.0  0.57870  0.05660  0.82860  1.0000
  C   C56       1.0  0.92130  0.55660  0.67140  1.0000
  H   H73       1.0  0.47800  0.93680  0.19060  1.0000
  H   H74       1.0  0.02200  0.43680  0.30940  1.0000
  H   H75       1.0  0.52200  0.06320  0.80940  1.0000
  H   H76       1.0  0.97800  0.56320  0.69060  1.0000
  H   H77       1.0  0.41160  0.88260  0.15400  1.0000
  H   H78       1.0  0.08840  0.38260  0.34600  1.0000
  H   H79       1.0  0.58840  0.11740  0.84600  1.0000
  H   H80       1.0  0.91160  0.61740  0.65400  1.0000
  C   C57       1.0  0.36290  0.03280  0.24100  1.0000
  C   C58       1.0  0.13710  0.53280  0.25900  1.0000
  C   C59       1.0  0.63710  0.96720  0.75900  1.0000
  C   C60       1.0  0.86290  0.46720  0.74100  1.0000
  C   C61       1.0  0.35270  0.12240  0.07340  1.0000
  C   C62       1.0  0.14730  0.62240  0.42660  1.0000
  C   C63       1.0  0.64730  0.87760  0.92660  1.0000
  C   C64       1.0  0.85270  0.37760  0.57340  1.0000
  C   C65       1.0  0.19370  0.24470  0.41030  1.0000
  C   C66       1.0  0.30630  0.74470  0.08970  1.0000
  C   C67       1.0  0.80630  0.75530  0.58970  1.0000
  C   C68       1.0  0.69370  0.25530  0.91030  1.0000
  H   H81       1.0  0.18790  0.31620  0.40850  1.0000
  H   H82       1.0  0.31210  0.81620  0.09150  1.0000
  H   H83       1.0  0.81210  0.68380  0.59150  1.0000
  H   H84       1.0  0.68790  0.18380  0.90850  1.0000
  C   C69       1.0  0.22140  0.22020  0.46120  1.0000
  C   C70       1.0  0.27860  0.72020  0.03880  1.0000
  C   C71       1.0  0.77860  0.77980  0.53880  1.0000
  C   C72       1.0  0.72140  0.27980  0.96120  1.0000
  H   H85       1.0  0.18040  0.25310  0.48250  1.0000
  H   H86       1.0  0.31960  0.75310  0.01750  1.0000
  H   H87       1.0  0.81960  0.74690  0.51750  1.0000
  H   H88       1.0  0.68040  0.24690  0.98250  1.0000
  H   H89       1.0  0.28350  0.24370  0.46810  1.0000
  H   H90       1.0  0.21650  0.74370  0.03190  1.0000
  H   H91       1.0  0.71650  0.75630  0.53190  1.0000
  H   H92       1.0  0.78350  0.25630  0.96810  1.0000
  C   C73       1.0  0.21780  0.11160  0.46980  1.0000
  C   C74       1.0  0.28220  0.61160  0.03020  1.0000
  C   C75       1.0  0.78220  0.88840  0.53020  1.0000
  C   C76       1.0  0.71780  0.38840  0.96980  1.0000
  H   H93       1.0  0.26220  0.07880  0.45020  1.0000
  H   H94       1.0  0.23780  0.57880  0.04980  1.0000
  H   H95       1.0  0.73780  0.92120  0.54980  1.0000
  H   H96       1.0  0.76220  0.42120  0.95020  1.0000
  H   H97       1.0  0.23390  0.09790  0.50310  1.0000
  H   H98       1.0  0.26610  0.59790  0.99690  1.0000
  H   H99       1.0  0.76610  0.90210  0.49690  1.0000
  H   H100      1.0  0.73390  0.40210  0.00310  1.0000
  C   C77       1.0  0.12310  0.07340  0.45780  1.0000
  C   C78       1.0  0.37690  0.57340  0.04220  1.0000
  C   C79       1.0  0.87690  0.92660  0.54220  1.0000
  C   C80       1.0  0.62310  0.42660  0.95780  1.0000
  H   H101      1.0  0.07990  0.10700  0.47830  1.0000
  H   H102      1.0  0.42010  0.60700  0.02170  1.0000
  H   H103      1.0  0.92010  0.89300  0.52170  1.0000
  H   H104      1.0  0.57990  0.39300  0.97830  1.0000
  C   C81       1.0  0.09570  0.09550  0.40710  1.0000
  C   C82       1.0  0.40430  0.59550  0.09290  1.0000
  C   C83       1.0  0.90430  0.90450  0.59290  1.0000
  C   C84       1.0  0.59570  0.40450  0.90710  1.0000
  H   H105      1.0  0.03320  0.07260  0.40050  1.0000
  H   H106      1.0  0.46680  0.57260  0.09950  1.0000
  H   H107      1.0  0.96680  0.92740  0.59950  1.0000
  H   H108      1.0  0.53320  0.42740  0.90050  1.0000
  H   H109      1.0  0.13610  0.06090  0.38610  1.0000
  H   H110      1.0  0.36390  0.56090  0.11390  1.0000
  H   H111      1.0  0.86390  0.93910  0.61390  1.0000
  H   H112      1.0  0.63610  0.43910  0.88610  1.0000
  C   C85       1.0  0.10060  0.20290  0.39750  1.0000
  C   C86       1.0  0.39940  0.70290  0.10250  1.0000
  C   C87       1.0  0.89940  0.79710  0.60250  1.0000
  C   C88       1.0  0.60060  0.29710  0.89750  1.0000
  H   H113      1.0  0.05450  0.23640  0.41570  1.0000
  H   H114      1.0  0.44550  0.73640  0.08430  1.0000
  H   H115      1.0  0.94550  0.76360  0.58430  1.0000
  H   H116      1.0  0.55450  0.26360  0.91570  1.0000
  H   H117      1.0  0.08650  0.21470  0.36380  1.0000
  H   H118      1.0  0.41350  0.71470  0.13620  1.0000
  H   H119      1.0  0.91350  0.78530  0.63620  1.0000
  H   H120      1.0  0.58650  0.28530  0.86380  1.0000
  C   C89       1.0  0.26580  0.21640  0.37710  1.0000
  C   C90       1.0  0.23420  0.71640  0.12290  1.0000
  C   C91       1.0  0.73420  0.78360  0.62290  1.0000
  C   C92       1.0  0.76580  0.28360  0.87710  1.0000
  C   C93       1.0  0.12020  0.96700  0.46920  1.0000
  C   C94       1.0  0.37980  0.46700  0.03080  1.0000
  C   C95       1.0  0.87980  0.03300  0.53080  1.0000
  C   C96       1.0  0.62020  0.53300  0.96920  1.0000
