data_image0
_chemical_formula_structural       U4O32C6H2C2H2C6H2C2H2C2H2C2H2C10H2C2H2C6H2C2H2C2H2C2H2C10H2C2H2C6H2C2H2C2H2C2H2C4
_chemical_formula_sum              "U4 O32 C72 H36"
_cell_length_a       10.014
_cell_length_b       15.315
_cell_length_c       16.677
_cell_angle_alpha    97.86
_cell_angle_beta     97.56
_cell_angle_gamma    98.9

_space_group_name_H-M_alt    "P 1"
_space_group_IT_number       1

loop_
  _space_group_symop_operation_xyz
  'x, y, z'

loop_
  _atom_site_type_symbol
  _atom_site_label
  _atom_site_symmetry_multiplicity
  _atom_site_fract_x
  _atom_site_fract_y
  _atom_site_fract_z
  _atom_site_occupancy
  U   U1        1.0  0.49311  0.85595  0.10629  1.0000
  U   U2        1.0  0.50689  0.14405  0.89371  1.0000
  U   U3        1.0  0.25118  0.43033  0.48960  1.0000
  U   U4        1.0  0.74882  0.56967  0.51040  1.0000
  O   O1        1.0  0.30090  0.73930  0.12570  1.0000
  O   O2        1.0  0.69910  0.26070  0.87430  1.0000
  O   O3        1.0  0.38290  0.84700  0.22860  1.0000
  O   O4        1.0  0.61710  0.15300  0.77140  1.0000
  O   O5        1.0  0.84930  0.55370  0.38340  1.0000
  O   O6        1.0  0.15070  0.44630  0.61660  1.0000
  O   O7        1.0  0.95260  0.66270  0.48050  1.0000
  O   O8        1.0  0.04740  0.33730  0.51950  1.0000
  O   O9        1.0  0.58740  0.84180  0.97350  1.0000
  O   O10       1.0  0.41260  0.15820  0.02650  1.0000
  O   O11       1.0  0.43960  0.72930  0.99260  1.0000
  O   O12       1.0  0.56040  0.27070  0.00740  1.0000
  O   O13       1.0  0.58870  0.54130  0.59780  1.0000
  O   O14       1.0  0.41130  0.45870  0.40220  1.0000
  O   O15       1.0  0.37570  0.56540  0.57400  1.0000
  O   O16       1.0  0.62430  0.43460  0.42600  1.0000
  O   O17       1.0  0.57380  0.98700  0.21600  1.0000
  O   O18       1.0  0.42620  0.01300  0.78400  1.0000
  O   O19       1.0  0.67570  0.98120  0.10760  1.0000
  O   O20       1.0  0.32430  0.01880  0.89240  1.0000
  O   O21       1.0  0.25220  0.19380  0.40020  1.0000
  O   O22       1.0  0.74780  0.80620  0.59980  1.0000
  O   O23       1.0  0.17470  0.31860  0.37860  1.0000
  O   O24       1.0  0.82530  0.68140  0.62140  1.0000
  O   O25       1.0  0.61660  0.80110  0.15030  1.0000
  O   O26       1.0  0.38340  0.19890  0.84970  1.0000
  O   O27       1.0  0.36890  0.91020  0.06320  1.0000
  O   O28       1.0  0.63110  0.08980  0.93680  1.0000
  O   O29       1.0  0.15070  0.49760  0.44180  1.0000
  O   O30       1.0  0.84930  0.50240  0.55820  1.0000
  O   O31       1.0  0.35590  0.36770  0.53970  1.0000
  O   O32       1.0  0.64410  0.63230  0.46030  1.0000
  C   C1        1.0  0.29860  0.77570  0.19820  1.0000
  C   C2        1.0  0.70140  0.22430  0.80180  1.0000
  C   C3        1.0  0.20030  0.73820  0.24770  1.0000
  C   C4        1.0  0.79970  0.26180  0.75230  1.0000
  C   C5        1.0  0.24660  0.73590  0.32890  1.0000
  C   C6        1.0  0.75340  0.26410  0.67110  1.0000
  H   H1        1.0  0.33752  0.75950  0.35052  1.0000
  H   H2        1.0  0.66248  0.24050  0.64948  1.0000
  C   C7        1.0  0.15860  0.69840  0.38020  1.0000
  C   C8        1.0  0.84140  0.30160  0.61980  1.0000
  H   H3        1.0  0.19200  0.69766  0.43476  1.0000
  H   H4        1.0  0.80800  0.30234  0.56524  1.0000
  C   C9        1.0  0.02450  0.66330  0.34930  1.0000
  C   C10       1.0  0.97550  0.33670  0.65070  1.0000
  C   C11       1.0  0.93750  0.62370  0.40700  1.0000
  C   C12       1.0  0.06250  0.37630  0.59300  1.0000
  C   C13       1.0  0.82910  0.63340  0.23370  1.0000
  C   C14       1.0  0.17090  0.36660  0.76630  1.0000
  H   H5        1.0  0.76951  0.60838  0.26600  1.0000
  H   H6        1.0  0.23049  0.39162  0.73400  1.0000
  C   C15       1.0  0.78260  0.64080  0.15550  1.0000
  C   C16       1.0  0.21740  0.35920  0.84450  1.0000
  H   H7        1.0  0.69100  0.61937  0.13403  1.0000
  H   H8        1.0  0.30900  0.38063  0.86597  1.0000
  C   C17       1.0  0.86930  0.68000  0.10630  1.0000
  C   C18       1.0  0.13070  0.32000  0.89370  1.0000
  H   H9        1.0  0.83417  0.68603  0.05323  1.0000
  H   H10       1.0  0.16583  0.31397  0.94677  1.0000
  C   C19       1.0  0.00480  0.70950  0.13500  1.0000
  C   C20       1.0  0.99520  0.29050  0.86500  1.0000
  H   H11       1.0  0.06169  0.73369  0.10075  1.0000
  H   H12       1.0  0.93831  0.26631  0.89925  1.0000
  C   C21       1.0  0.05950  0.70390  0.21540  1.0000
  C   C22       1.0  0.94050  0.29610  0.78460  1.0000
  C   C23       1.0  0.97060  0.66440  0.26640  1.0000
  C   C24       1.0  0.02940  0.33560  0.73360  1.0000
  C   C25       1.0  0.51660  0.76530  0.94920  1.0000
  C   C26       1.0  0.48340  0.23470  0.05080  1.0000
  C   C27       1.0  0.52460  0.71570  0.86470  1.0000
  C   C28       1.0  0.47540  0.28430  0.13530  1.0000
  C   C29       1.0  0.49890  0.75870  0.79810  1.0000
  C   C30       1.0  0.50110  0.24130  0.20190  1.0000
  H   H13       1.0  0.48967  0.81865  0.80590  1.0000
  H   H14       1.0  0.51033  0.18135  0.19410  1.0000
  C   C31       1.0  0.48700  0.71110  0.71840  1.0000
  C   C32       1.0  0.51300  0.28890  0.28160  1.0000
  H   H15       1.0  0.46829  0.73946  0.67338  1.0000
  H   H16       1.0  0.53171  0.26054  0.32662  1.0000
  C   C33       1.0  0.50280  0.62350  0.70670  1.0000
  C   C34       1.0  0.49720  0.37650  0.29330  1.0000
  C   C35       1.0  0.48870  0.57380  0.61890  1.0000
  C   C36       1.0  0.51130  0.42620  0.38110  1.0000
  C   C37       1.0  0.54480  0.48550  0.76300  1.0000
  C   C38       1.0  0.45520  0.51450  0.23700  1.0000
  H   H17       1.0  0.53533  0.45380  0.71030  1.0000
  H   H18       1.0  0.46467  0.54620  0.28970  1.0000
  C   C39       1.0  0.57040  0.44320  0.82720  1.0000
  C   C40       1.0  0.42960  0.55680  0.17280  1.0000
  H   H19       1.0  0.57772  0.38291  0.81871  1.0000
  H   H20       1.0  0.42228  0.61709  0.18129  1.0000
  C   C41       1.0  0.58610  0.49030  0.90770  1.0000
  C   C42       1.0  0.41390  0.50970  0.09230  1.0000
  H   H21       1.0  0.60662  0.46173  0.95236  1.0000
  H   H22       1.0  0.39338  0.53827  0.04764  1.0000
  C   C43       1.0  0.57110  0.57790  0.91990  1.0000
  C   C44       1.0  0.42890  0.42210  0.08010  1.0000
  H   H23       1.0  0.58103  0.60785  0.97333  1.0000
  H   H24       1.0  0.41897  0.39215  0.02667  1.0000
  C   C45       1.0  0.54100  0.62540  0.85410  1.0000
  C   C46       1.0  0.45900  0.37460  0.14590  1.0000
  C   C47       1.0  0.53170  0.57710  0.77310  1.0000
  C   C48       1.0  0.46830  0.42290  0.22690  1.0000
  C   C49       1.0  0.67250  0.01590  0.18070  1.0000
  C   C50       1.0  0.32750  0.98410  0.81930  1.0000
  C   C51       1.0  0.79280  0.08210  0.22780  1.0000
  C   C52       1.0  0.20720  0.91790  0.77220  1.0000
  C   C53       1.0  0.82260  0.08090  0.30970  1.0000
  C   C54       1.0  0.17740  0.91910  0.69030  1.0000
  H   H25       1.0  0.76053  0.04779  0.33564  1.0000
  H   H26       1.0  0.23947  0.95221  0.66436  1.0000
  C   C55       1.0  0.94710  0.12960  0.35550  1.0000
  C   C56       1.0  0.05290  0.87040  0.64450  1.0000
  H   H27       1.0  0.96791  0.12621  0.41093  1.0000
  H   H28       1.0  0.03209  0.87379  0.58907  1.0000
  C   C57       1.0  0.03640  0.18110  0.31950  1.0000
  C   C58       1.0  0.96360  0.81890  0.68050  1.0000
  C   C59       1.0  0.16420  0.23430  0.36920  1.0000
  C   C60       1.0  0.83580  0.76570  0.63080  1.0000
  C   C61       1.0  0.09710  0.23940  0.19580  1.0000
  C   C62       1.0  0.90290  0.76060  0.80420  1.0000
  H   H29       1.0  0.18043  0.26987  0.22526  1.0000
  H   H30       1.0  0.81957  0.73013  0.77474  1.0000
  C   C63       1.0  0.06390  0.24600  0.11390  1.0000
  C   C64       1.0  0.93610  0.75400  0.88610  1.0000
  H   H31       1.0  0.12536  0.27996  0.08813  1.0000
  H   H32       1.0  0.87464  0.72004  0.91187  1.0000
  C   C65       1.0  0.94010  0.20230  0.07090  1.0000
  C   C66       1.0  0.05990  0.79770  0.92910  1.0000
  H   H33       1.0  0.91733  0.20872  0.01640  1.0000
  H   H34       1.0  0.08267  0.79128  0.98360  1.0000
  C   C67       1.0  0.85100  0.15040  0.10530  1.0000
  C   C68       1.0  0.14900  0.84960  0.89470  1.0000
  H   H35       1.0  0.76811  0.12149  0.07416  1.0000
  H   H36       1.0  0.23189  0.87851  0.92584  1.0000
  C   C69       1.0  0.88050  0.13850  0.18850  1.0000
  C   C70       1.0  0.11950  0.86150  0.81150  1.0000
  C   C71       1.0  0.00680  0.18760  0.23430  1.0000
  C   C72       1.0  0.99320  0.81240  0.76570  1.0000
