data_image0
_chemical_formula_structural       U4O8C8H4C4H4C8H4C4H4C4H4C4H4C16O24C8H4C4H4C8H4C4H4C4H4C4H4C16O16C8H4C4H4C8H4C4H4C4H4C4H4C16O16U4
_chemical_formula_sum              "U8 O64 C144 H72"
_cell_length_a       17.017
_cell_length_b       22.5
_cell_length_c       13.661
_cell_angle_alpha    90
_cell_angle_beta     93.29
_cell_angle_gamma    90

_space_group_name_H-M_alt    "P 1"
_space_group_IT_number       1

loop_
  _space_group_symop_operation_xyz
  'x, y, z'

loop_
  _atom_site_type_symbol
  _atom_site_label
  _atom_site_symmetry_multiplicity
  _atom_site_fract_x
  _atom_site_fract_y
  _atom_site_fract_z
  _atom_site_occupancy
  U   U1        1.0  0.50262  0.10948  0.95104  1.0000
  U   U2        1.0  0.49738  0.60948  0.54896  1.0000
  U   U3        1.0  0.49738  0.89052  0.04896  1.0000
  U   U4        1.0  0.50262  0.39052  0.45104  1.0000
  O   O1        1.0  0.59730  0.04153  0.01360  1.0000
  O   O2        1.0  0.40270  0.54153  0.48640  1.0000
  O   O3        1.0  0.40270  0.95847  0.98640  1.0000
  O   O4        1.0  0.59730  0.45847  0.51360  1.0000
  O   O5        1.0  0.55810  0.97417  0.11940  1.0000
  O   O6        1.0  0.44190  0.47417  0.38060  1.0000
  O   O7        1.0  0.44190  0.02583  0.88060  1.0000
  O   O8        1.0  0.55810  0.52583  0.61940  1.0000
  C   C1        1.0  0.69460  0.00040  0.12170  1.0000
  C   C2        1.0  0.30540  0.50040  0.37830  1.0000
  C   C3        1.0  0.30540  0.99960  0.87830  1.0000
  C   C4        1.0  0.69460  0.49960  0.62170  1.0000
  C   C5        1.0  0.75120  0.00220  0.05340  1.0000
  C   C6        1.0  0.24880  0.50220  0.44660  1.0000
  C   C7        1.0  0.24880  0.99780  0.94660  1.0000
  C   C8        1.0  0.75120  0.49780  0.55340  1.0000
  H   H1        1.0  0.73581  0.00624  0.98733  1.0000
  H   H2        1.0  0.26419  0.50624  0.51267  1.0000
  H   H3        1.0  0.26419  0.99376  0.01267  1.0000
  H   H4        1.0  0.73581  0.49376  0.48733  1.0000
  C   C9        1.0  0.83310  0.99790  0.08230  1.0000
  C   C10       1.0  0.16690  0.49790  0.41770  1.0000
  C   C11       1.0  0.16690  0.00210  0.91770  1.0000
  C   C12       1.0  0.83310  0.50210  0.58230  1.0000
  H   H5        1.0  0.87058  0.99884  0.03532  1.0000
  H   H6        1.0  0.12942  0.49884  0.46468  1.0000
  H   H7        1.0  0.12942  0.00116  0.96468  1.0000
  H   H8        1.0  0.87058  0.50116  0.53532  1.0000
  C   C13       1.0  0.85560  0.99250  0.17770  1.0000
  C   C14       1.0  0.14440  0.49250  0.32230  1.0000
  C   C15       1.0  0.14440  0.00750  0.82230  1.0000
  C   C16       1.0  0.85560  0.50750  0.67770  1.0000
  C   C17       1.0  0.82130  0.98500  0.35350  1.0000
  C   C18       1.0  0.17870  0.48500  0.14650  1.0000
  C   C19       1.0  0.17870  0.01500  0.64650  1.0000
  C   C20       1.0  0.82130  0.51500  0.85350  1.0000
  H   H9        1.0  0.87443  0.98195  0.37305  1.0000
  H   H10       1.0  0.12557  0.48195  0.12695  1.0000
  H   H11       1.0  0.12557  0.01805  0.62695  1.0000
  H   H12       1.0  0.87443  0.51805  0.87305  1.0000
  C   C21       1.0  0.76770  0.98440  0.42200  1.0000
  C   C22       1.0  0.23230  0.48440  0.07800  1.0000
  C   C23       1.0  0.23230  0.01560  0.57800  1.0000
  C   C24       1.0  0.76770  0.51560  0.92200  1.0000
  H   H13       1.0  0.78367  0.98140  0.48806  1.0000
  H   H14       1.0  0.21633  0.48140  0.01194  1.0000
  H   H15       1.0  0.21633  0.01860  0.51194  1.0000
  H   H16       1.0  0.78367  0.51860  0.98806  1.0000
  C   C25       1.0  0.68730  0.98820  0.39290  1.0000
  C   C26       1.0  0.31270  0.48820  0.10710  1.0000
  C   C27       1.0  0.31270  0.01180  0.60710  1.0000
  C   C28       1.0  0.68730  0.51180  0.89290  1.0000
  H   H17       1.0  0.65020  0.98747  0.44025  1.0000
  H   H18       1.0  0.34980  0.48747  0.05975  1.0000
  H   H19       1.0  0.34980  0.01253  0.55975  1.0000
  H   H20       1.0  0.65020  0.51253  0.94025  1.0000
  C   C29       1.0  0.66310  0.99300  0.29820  1.0000
  C   C30       1.0  0.33690  0.49300  0.20180  1.0000
  C   C31       1.0  0.33690  0.00700  0.70180  1.0000
  C   C32       1.0  0.66310  0.50700  0.79820  1.0000
  H   H21       1.0  0.60951  0.99627  0.28157  1.0000
  H   H22       1.0  0.39049  0.49627  0.21843  1.0000
  H   H23       1.0  0.39049  0.00373  0.71843  1.0000
  H   H24       1.0  0.60951  0.50373  0.78157  1.0000
  C   C33       1.0  0.71650  0.99330  0.22300  1.0000
  C   C34       1.0  0.28350  0.49330  0.27700  1.0000
  C   C35       1.0  0.28350  0.00670  0.77700  1.0000
  C   C36       1.0  0.71650  0.50670  0.72300  1.0000
  C   C37       1.0  0.79910  0.99010  0.25180  1.0000
  C   C38       1.0  0.20090  0.49010  0.24820  1.0000
  C   C39       1.0  0.20090  0.00990  0.74820  1.0000
  C   C40       1.0  0.79910  0.50990  0.75180  1.0000
  C   C41       1.0  0.61140  0.00560  0.08270  1.0000
  C   C42       1.0  0.38860  0.50560  0.41730  1.0000
  C   C43       1.0  0.38860  0.99440  0.91730  1.0000
  C   C44       1.0  0.61140  0.49440  0.58270  1.0000
  C   C45       1.0  0.94140  0.99170  0.20880  1.0000
  C   C46       1.0  0.05860  0.49170  0.29120  1.0000
  C   C47       1.0  0.05860  0.00830  0.79120  1.0000
  C   C48       1.0  0.94140  0.50830  0.70880  1.0000
  O   O9        1.0  0.97730  0.03920  0.22350  1.0000
  O   O10       1.0  0.02270  0.53920  0.27650  1.0000
  O   O11       1.0  0.02270  0.96080  0.77650  1.0000
  O   O12       1.0  0.97730  0.46080  0.72350  1.0000
  O   O13       1.0  0.97800  0.94340  0.21800  1.0000
  O   O14       1.0  0.02200  0.44340  0.28200  1.0000
  O   O15       1.0  0.02200  0.05660  0.78200  1.0000
  O   O16       1.0  0.97800  0.55660  0.71800  1.0000
  O   O17       1.0  0.56170  0.11780  0.85040  1.0000
  O   O18       1.0  0.43830  0.61780  0.64960  1.0000
  O   O19       1.0  0.43830  0.88220  0.14960  1.0000
  O   O20       1.0  0.56170  0.38220  0.35040  1.0000
  O   O21       1.0  0.44250  0.10010  0.04790  1.0000
  O   O22       1.0  0.55750  0.60010  0.45210  1.0000
  O   O23       1.0  0.55750  0.89990  0.95210  1.0000
  O   O24       1.0  0.44250  0.39990  0.54790  1.0000
  O   O25       1.0  0.45620  0.21297  0.93660  1.0000
  O   O26       1.0  0.54380  0.71297  0.56340  1.0000
  O   O27       1.0  0.54380  0.78703  0.06340  1.0000
  O   O28       1.0  0.45620  0.28703  0.43660  1.0000
  O   O29       1.0  0.39060  0.14860  0.84690  1.0000
  O   O30       1.0  0.60940  0.64860  0.65310  1.0000
  O   O31       1.0  0.60940  0.85140  0.15310  1.0000
  O   O32       1.0  0.39060  0.35140  0.34690  1.0000
  C   C49       1.0  0.23310  0.34460  0.82890  1.0000
  C   C50       1.0  0.76690  0.84460  0.67110  1.0000
  C   C51       1.0  0.76690  0.65540  0.17110  1.0000
  C   C52       1.0  0.23310  0.15540  0.32890  1.0000
  C   C53       1.0  0.31160  0.35300  0.85640  1.0000
  C   C54       1.0  0.68840  0.85300  0.64360  1.0000
  C   C55       1.0  0.68840  0.64700  0.14360  1.0000
  C   C56       1.0  0.31160  0.14700  0.35640  1.0000
  H   H25       1.0  0.33025  0.39151  0.86672  1.0000
  H   H26       1.0  0.66975  0.89151  0.63328  1.0000
  H   H27       1.0  0.66975  0.60849  0.13328  1.0000
  H   H28       1.0  0.33025  0.10849  0.36672  1.0000
  C   C57       1.0  0.36360  0.30580  0.86900  1.0000
  C   C58       1.0  0.63640  0.80580  0.63100  1.0000
  C   C59       1.0  0.63640  0.69420  0.13100  1.0000
  C   C60       1.0  0.36360  0.19420  0.36900  1.0000
  H   H29       1.0  0.41663  0.31304  0.88479  1.0000
  H   H30       1.0  0.58337  0.81304  0.61521  1.0000
  H   H31       1.0  0.58337  0.68696  0.11521  1.0000
  H   H32       1.0  0.41663  0.18696  0.38479  1.0000
  C   C61       1.0  0.33670  0.24760  0.85820  1.0000
  C   C62       1.0  0.66330  0.74760  0.64180  1.0000
  C   C63       1.0  0.66330  0.75240  0.14180  1.0000
  C   C64       1.0  0.33670  0.25240  0.35820  1.0000
  C   C65       1.0  0.22640  0.17800  0.81400  1.0000
  C   C66       1.0  0.77360  0.67800  0.68600  1.0000
  C   C67       1.0  0.77360  0.82200  0.18600  1.0000
  C   C68       1.0  0.22640  0.32200  0.31400  1.0000
  H   H33       1.0  0.26012  0.14564  0.82165  1.0000
  H   H34       1.0  0.73988  0.64564  0.67835  1.0000
  H   H35       1.0  0.73988  0.85436  0.17835  1.0000
  H   H36       1.0  0.26012  0.35436  0.32165  1.0000
  C   C69       1.0  0.14930  0.16850  0.78910  1.0000
  C   C70       1.0  0.85070  0.66850  0.71090  1.0000
  C   C71       1.0  0.85070  0.83150  0.21090  1.0000
  C   C72       1.0  0.14930  0.33150  0.28910  1.0000
  H   H37       1.0  0.13099  0.12994  0.77854  1.0000
  H   H38       1.0  0.86901  0.62994  0.72146  1.0000
  H   H39       1.0  0.86901  0.87006  0.22146  1.0000
  H   H40       1.0  0.13099  0.37006  0.27854  1.0000
  C   C73       1.0  0.09640  0.21680  0.77900  1.0000
  C   C74       1.0  0.90360  0.71680  0.72100  1.0000
  C   C75       1.0  0.90360  0.78320  0.22100  1.0000
  C   C76       1.0  0.09640  0.28320  0.27900  1.0000
  H   H41       1.0  0.04339  0.20979  0.76273  1.0000
  H   H42       1.0  0.95661  0.70979  0.73727  1.0000
  H   H43       1.0  0.95661  0.79021  0.23727  1.0000
  H   H44       1.0  0.04339  0.29021  0.26273  1.0000
  C   C77       1.0  0.12240  0.27330  0.79290  1.0000
  C   C78       1.0  0.87760  0.77330  0.70710  1.0000
  C   C79       1.0  0.87760  0.72670  0.20710  1.0000
  C   C80       1.0  0.12240  0.22670  0.29290  1.0000
  H   H45       1.0  0.08679  0.30461  0.78657  1.0000
  H   H46       1.0  0.91321  0.80461  0.71343  1.0000
  H   H47       1.0  0.91321  0.69539  0.21343  1.0000
  H   H48       1.0  0.08679  0.19539  0.28657  1.0000
  C   C81       1.0  0.20280  0.28560  0.81700  1.0000
  C   C82       1.0  0.79720  0.78560  0.68300  1.0000
  C   C83       1.0  0.79720  0.71440  0.18300  1.0000
  C   C84       1.0  0.20280  0.21440  0.31700  1.0000
  C   C85       1.0  0.25690  0.23610  0.82860  1.0000
  C   C86       1.0  0.74310  0.73610  0.67140  1.0000
  C   C87       1.0  0.74310  0.76390  0.17140  1.0000
  C   C88       1.0  0.25690  0.26390  0.32860  1.0000
  C   C89       1.0  0.18400  0.39980  0.81350  1.0000
  C   C90       1.0  0.81600  0.89980  0.68650  1.0000
  C   C91       1.0  0.81600  0.60020  0.18650  1.0000
  C   C92       1.0  0.18400  0.10020  0.31350  1.0000
  C   C93       1.0  0.39690  0.20000  0.88090  1.0000
  C   C94       1.0  0.60310  0.70000  0.61910  1.0000
  C   C95       1.0  0.60310  0.80000  0.11910  1.0000
  C   C96       1.0  0.39690  0.30000  0.38090  1.0000
  O   O33       1.0  0.11200  0.39931  0.78640  1.0000
  O   O34       1.0  0.88800  0.89931  0.71360  1.0000
  O   O35       1.0  0.88800  0.60069  0.21360  1.0000
  O   O36       1.0  0.11200  0.10069  0.28640  1.0000
  O   O37       1.0  0.21840  0.44924  0.82680  1.0000
  O   O38       1.0  0.78160  0.94924  0.67320  1.0000
  O   O39       1.0  0.78160  0.55076  0.17320  1.0000
  O   O40       1.0  0.21840  0.05076  0.32680  1.0000
  O   O41       1.0  0.11490  0.61800  0.77850  1.0000
  O   O42       1.0  0.88510  0.11800  0.72150  1.0000
  O   O43       1.0  0.88510  0.38200  0.22150  1.0000
  O   O44       1.0  0.11490  0.88200  0.27850  1.0000
  O   O45       1.0  0.22040  0.56730  0.81980  1.0000
  O   O46       1.0  0.77960  0.06730  0.68020  1.0000
  O   O47       1.0  0.77960  0.43270  0.18020  1.0000
  O   O48       1.0  0.22040  0.93270  0.31980  1.0000
  C   C97       1.0  0.23710  0.67200  0.81720  1.0000
  C   C98       1.0  0.76290  0.17200  0.68280  1.0000
  C   C99       1.0  0.76290  0.32800  0.18280  1.0000
  C   C100      1.0  0.23710  0.82800  0.31720  1.0000
  C   C101      1.0  0.31480  0.66320  0.84620  1.0000
  C   C102      1.0  0.68520  0.16320  0.65380  1.0000
  C   C103      1.0  0.68520  0.33680  0.15380  1.0000
  C   C104      1.0  0.31480  0.83680  0.34620  1.0000
  H   H49       1.0  0.33282  0.62458  0.85719  1.0000
  H   H50       1.0  0.66718  0.12458  0.64281  1.0000
  H   H51       1.0  0.66718  0.37542  0.14281  1.0000
  H   H52       1.0  0.33282  0.87542  0.35719  1.0000
  C   C105      1.0  0.36720  0.71020  0.85950  1.0000
  C   C106      1.0  0.63280  0.21020  0.64050  1.0000
  C   C107      1.0  0.63280  0.28980  0.14050  1.0000
  C   C108      1.0  0.36720  0.78980  0.35950  1.0000
  H   H53       1.0  0.41980  0.70279  0.87781  1.0000
  H   H54       1.0  0.58020  0.20279  0.62219  1.0000
  H   H55       1.0  0.58020  0.29721  0.12219  1.0000
  H   H56       1.0  0.41980  0.79721  0.37781  1.0000
  C   C109      1.0  0.34130  0.76820  0.84550  1.0000
  C   C110      1.0  0.65870  0.26820  0.65450  1.0000
  C   C111      1.0  0.65870  0.23180  0.15450  1.0000
  C   C112      1.0  0.34130  0.73180  0.34550  1.0000
  C   C113      1.0  0.23540  0.83810  0.79660  1.0000
  C   C114      1.0  0.76460  0.33810  0.70340  1.0000
  C   C115      1.0  0.76460  0.16190  0.20340  1.0000
  C   C116      1.0  0.23540  0.66190  0.29660  1.0000
  H   H57       1.0  0.27098  0.86938  0.80387  1.0000
  H   H58       1.0  0.72902  0.36938  0.69613  1.0000
  H   H59       1.0  0.72902  0.13062  0.19613  1.0000
  H   H60       1.0  0.27098  0.63062  0.30387  1.0000
  C   C117      1.0  0.15860  0.84990  0.76950  1.0000
  C   C118      1.0  0.84140  0.34990  0.73050  1.0000
  C   C119      1.0  0.84140  0.15010  0.23050  1.0000
  C   C120      1.0  0.15860  0.65010  0.26950  1.0000
  H   H61       1.0  0.14198  0.88888  0.75935  1.0000
  H   H62       1.0  0.85802  0.38888  0.74065  1.0000
  H   H63       1.0  0.85802  0.11112  0.24065  1.0000
  H   H64       1.0  0.14198  0.61112  0.25935  1.0000
  C   C121      1.0  0.10450  0.80250  0.75690  1.0000
  C   C122      1.0  0.89550  0.30250  0.74310  1.0000
  C   C123      1.0  0.89550  0.19750  0.24310  1.0000
  C   C124      1.0  0.10450  0.69750  0.25690  1.0000
  H   H65       1.0  0.05226  0.81036  0.73765  1.0000
  H   H66       1.0  0.94774  0.31036  0.76235  1.0000
  H   H67       1.0  0.94774  0.18964  0.26235  1.0000
  H   H68       1.0  0.05226  0.68964  0.23765  1.0000
  C   C125      1.0  0.12850  0.74490  0.77270  1.0000
  C   C126      1.0  0.87150  0.24490  0.72730  1.0000
  C   C127      1.0  0.87150  0.25510  0.22730  1.0000
  C   C128      1.0  0.12850  0.75510  0.27270  1.0000
  H   H69       1.0  0.09197  0.71432  0.76477  1.0000
  H   H70       1.0  0.90803  0.21432  0.73523  1.0000
  H   H71       1.0  0.90803  0.28568  0.23523  1.0000
  H   H72       1.0  0.09197  0.78568  0.26477  1.0000
  C   C129      1.0  0.20820  0.73100  0.80120  1.0000
  C   C130      1.0  0.79180  0.23100  0.69880  1.0000
  C   C131      1.0  0.79180  0.26900  0.19880  1.0000
  C   C132      1.0  0.20820  0.76900  0.30120  1.0000
  C   C133      1.0  0.26200  0.77930  0.81400  1.0000
  C   C134      1.0  0.73800  0.27930  0.68600  1.0000
  C   C135      1.0  0.73800  0.22070  0.18600  1.0000
  C   C136      1.0  0.26200  0.72070  0.31400  1.0000
  C   C137      1.0  0.18760  0.61740  0.80490  1.0000
  C   C138      1.0  0.81240  0.11740  0.69510  1.0000
  C   C139      1.0  0.81240  0.38260  0.19510  1.0000
  C   C140      1.0  0.18760  0.88260  0.30490  1.0000
  C   C141      1.0  0.39810  0.81820  0.86580  1.0000
  C   C142      1.0  0.60190  0.31820  0.63420  1.0000
  C   C143      1.0  0.60190  0.18180  0.13420  1.0000
  C   C144      1.0  0.39810  0.68180  0.36580  1.0000
  O   O49       1.0  0.41130  0.83066  0.95430  1.0000
  O   O50       1.0  0.58870  0.33066  0.54570  1.0000
  O   O51       1.0  0.58870  0.16934  0.04570  1.0000
  O   O52       1.0  0.41130  0.66934  0.45430  1.0000
  O   O53       1.0  0.42920  0.84270  0.79820  1.0000
  O   O54       1.0  0.57080  0.34270  0.70180  1.0000
  O   O55       1.0  0.57080  0.15730  0.20180  1.0000
  O   O56       1.0  0.42920  0.65730  0.29820  1.0000
  O   O57       1.0  0.07380  0.51070  0.89550  1.0000
  O   O58       1.0  0.92620  0.01070  0.60450  1.0000
  O   O59       1.0  0.92620  0.48930  0.10450  1.0000
  O   O60       1.0  0.07380  0.98930  0.39550  1.0000
  O   O61       1.0  0.13160  0.50690  0.65520  1.0000
  O   O62       1.0  0.86840  0.00690  0.84480  1.0000
  O   O63       1.0  0.86840  0.49310  0.34480  1.0000
  O   O64       1.0  0.13160  0.99310  0.15520  1.0000
  U   U5        1.0  0.10306  0.50893  0.77517  1.0000
  U   U6        1.0  0.89694  0.00893  0.72483  1.0000
  U   U7        1.0  0.89694  0.49107  0.22483  1.0000
  U   U8        1.0  0.10306  0.99107  0.27517  1.0000
