data_image0
_chemical_formula_structural       U4S4O36C4H2C4H2C4H2C8H2C4H2C4H2C4
_chemical_formula_sum              "U4 S4 O36 C32 H12"
_cell_length_a       9.2047
_cell_length_b       13.1351
_cell_length_c       16.0557
_cell_angle_alpha    84.29
_cell_angle_beta     83.18
_cell_angle_gamma    86.828

_space_group_name_H-M_alt    "P 1"
_space_group_IT_number       1

loop_
  _space_group_symop_operation_xyz
  'x, y, z'

loop_
  _atom_site_type_symbol
  _atom_site_label
  _atom_site_symmetry_multiplicity
  _atom_site_fract_x
  _atom_site_fract_y
  _atom_site_fract_z
  _atom_site_occupancy
  U   U1        1.0  0.27964  0.04834  0.27254  1.0000
  U   U2        1.0  0.72036  0.95166  0.72746  1.0000
  U   U3        1.0  0.28162  0.44062  0.24366  1.0000
  U   U4        1.0  0.71838  0.55938  0.75634  1.0000
  S   S1        1.0  0.05850  0.47959  0.63594  1.0000
  S   S2        1.0  0.94150  0.52041  0.36406  1.0000
  S   S3        1.0  0.74160  0.00056  0.94071  1.0000
  S   S4        1.0  0.25840  0.99944  0.05929  1.0000
  O   O1        1.0  0.41590  0.96510  0.31190  1.0000
  O   O2        1.0  0.58410  0.03490  0.68810  1.0000
  O   O3        1.0  0.14310  0.13350  0.23580  1.0000
  O   O4        1.0  0.85690  0.86650  0.76420  1.0000
  O   O5        1.0  0.41880  0.49580  0.28870  1.0000
  O   O6        1.0  0.58120  0.50420  0.71130  1.0000
  O   O7        1.0  0.14670  0.38520  0.19740  1.0000
  O   O8        1.0  0.85330  0.61480  0.80260  1.0000
  O   O9        1.0  0.11640  0.55250  0.56910  1.0000
  O   O10       1.0  0.88360  0.44750  0.43090  1.0000
  O   O11       1.0  0.13210  0.47220  0.70970  1.0000
  O   O12       1.0  0.86790  0.52780  0.29030  1.0000
  O   O13       1.0  0.90040  0.49560  0.65470  1.0000
  O   O14       1.0  0.09960  0.50440  0.34530  1.0000
  O   O15       1.0  0.86300  0.10450  0.72980  1.0000
  O   O16       1.0  0.13700  0.89550  0.27020  1.0000
  O   O17       1.0  0.90460  0.02140  0.61640  1.0000
  O   O18       1.0  0.09540  0.97860  0.38360  1.0000
  O   O19       1.0  0.28210  0.31200  0.35500  1.0000
  O   O20       1.0  0.71790  0.68800  0.64500  1.0000
  O   O21       1.0  0.28570  0.14480  0.38750  1.0000
  O   O22       1.0  0.71430  0.85520  0.61250  1.0000
  O   O23       1.0  0.45880  0.32650  0.18410  1.0000
  O   O24       1.0  0.54120  0.67350  0.81590  1.0000
  O   O25       1.0  0.46670  0.15780  0.21290  1.0000
  O   O26       1.0  0.53330  0.84220  0.78710  1.0000
  O   O27       1.0  0.68210  0.92540  0.00580  1.0000
  O   O28       1.0  0.31790  0.07460  0.99420  1.0000
  O   O29       1.0  0.89600  0.99570  0.92150  1.0000
  O   O30       1.0  0.10400  0.00430  0.07850  1.0000
  O   O31       1.0  0.66510  0.00150  0.86390  1.0000
  O   O32       1.0  0.33490  0.99850  0.13610  1.0000
  O   O33       1.0  0.62720  0.47820  0.89470  1.0000
  O   O34       1.0  0.37280  0.52180  0.10530  1.0000
  O   O35       1.0  0.78760  0.38740  0.81770  1.0000
  O   O36       1.0  0.21240  0.61260  0.18230  1.0000
  C   C1        1.0  0.07570  0.35880  0.59550  1.0000
  C   C2        1.0  0.92430  0.64120  0.40450  1.0000
  C   C3        1.0  0.15370  0.34620  0.51790  1.0000
  C   C4        1.0  0.84630  0.65380  0.48210  1.0000
  H   H1        1.0  0.19740  0.40150  0.48570  1.0000
  H   H2        1.0  0.80260  0.59850  0.51430  1.0000
  C   C5        1.0  0.16610  0.24960  0.48850  1.0000
  C   C6        1.0  0.83390  0.75040  0.51150  1.0000
  C   C7        1.0  0.09430  0.16770  0.53330  1.0000
  C   C8        1.0  0.90570  0.83230  0.46670  1.0000
  H   H3        1.0  0.10000  0.10420  0.51200  1.0000
  H   H4        1.0  0.90000  0.89580  0.48800  1.0000
  C   C9        1.0  0.01270  0.18210  0.61130  1.0000
  C   C10       1.0  0.98730  0.81790  0.38870  1.0000
  C   C11       1.0  0.00360  0.27820  0.64110  1.0000
  C   C12       1.0  0.99640  0.72180  0.35890  1.0000
  H   H5        1.0  0.94850  0.28840  0.69220  1.0000
  H   H6        1.0  0.05150  0.71160  0.30780  1.0000
  C   C13       1.0  0.25250  0.23510  0.40400  1.0000
  C   C14       1.0  0.74750  0.76490  0.59600  1.0000
  C   C15       1.0  0.92430  0.09780  0.65470  1.0000
  C   C16       1.0  0.07570  0.90220  0.34530  1.0000
  C   C17       1.0  0.68950  0.12180  0.97660  1.0000
  C   C18       1.0  0.31050  0.87820  0.02340  1.0000
  C   C19       1.0  0.61900  0.13080  0.05590  1.0000
  C   C20       1.0  0.38100  0.86920  0.94410  1.0000
  H   H7        1.0  0.60050  0.07290  0.09310  1.0000
  H   H8        1.0  0.39950  0.92710  0.90690  1.0000
  C   C21       1.0  0.57520  0.22790  0.08000  1.0000
  C   C22       1.0  0.42480  0.77210  0.92000  1.0000
  C   C23       1.0  0.59980  0.31350  0.02420  1.0000
  C   C24       1.0  0.40020  0.68650  0.97580  1.0000
  H   H9        1.0  0.56690  0.37800  0.03950  1.0000
  H   H10       1.0  0.43310  0.62200  0.96050  1.0000
  C   C25       1.0  0.67430  0.30240  0.94490  1.0000
  C   C26       1.0  0.32570  0.69760  0.05510  1.0000
  C   C27       1.0  0.71830  0.20760  0.92020  1.0000
  C   C28       1.0  0.28170  0.79240  0.07980  1.0000
  H   H11       1.0  0.76650  0.20080  0.86660  1.0000
  H   H12       1.0  0.23350  0.79920  0.13340  1.0000
  C   C29       1.0  0.49290  0.23650  0.16720  1.0000
  C   C30       1.0  0.50710  0.76350  0.83280  1.0000
  C   C31       1.0  0.69920  0.39380  0.88330  1.0000
  C   C32       1.0  0.30080  0.60620  0.11670  1.0000
