data_image0
_chemical_formula_structural       U8S8O72C16H4C8H4C8H4C16H4C8H4C8H4
_chemical_formula_sum              "U8 S8 O72 C64 H24"
_cell_length_a       11.5202
_cell_length_b       14.4501
_cell_length_c       22.0213
_cell_angle_alpha    90
_cell_angle_beta     100.47
_cell_angle_gamma    90

_space_group_name_H-M_alt    "P 1"
_space_group_IT_number       1

loop_
  _space_group_symop_operation_xyz
  'x, y, z'

loop_
  _atom_site_type_symbol
  _atom_site_label
  _atom_site_symmetry_multiplicity
  _atom_site_fract_x
  _atom_site_fract_y
  _atom_site_fract_z
  _atom_site_occupancy
  U   U1        1.0  0.55480  0.22085  0.02612  1.0000
  U   U2        1.0  0.44520  0.72086  0.47388  1.0000
  U   U3        1.0  0.44520  0.77914  0.97388  1.0000
  U   U4        1.0  0.55480  0.27914  0.52612  1.0000
  U   U5        1.0  0.91247  0.25639  0.22945  1.0000
  U   U6        1.0  0.08753  0.75639  0.27055  1.0000
  U   U7        1.0  0.08753  0.74361  0.77055  1.0000
  U   U8        1.0  0.91247  0.24361  0.72945  1.0000
  S   S1        1.0  0.18067  0.15166  0.21101  1.0000
  S   S2        1.0  0.81933  0.65166  0.28899  1.0000
  S   S3        1.0  0.81933  0.84834  0.78899  1.0000
  S   S4        1.0  0.18067  0.34834  0.71101  1.0000
  S   S5        1.0  0.28673  0.32281  0.05315  1.0000
  S   S6        1.0  0.71327  0.82281  0.44685  1.0000
  S   S7        1.0  0.71327  0.67719  0.94685  1.0000
  S   S8        1.0  0.28673  0.17719  0.55315  1.0000
  O   O1        1.0  0.52790  0.10010  0.02123  1.0000
  O   O2        1.0  0.47210  0.60010  0.47877  1.0000
  O   O3        1.0  0.47210  0.89990  0.97877  1.0000
  O   O4        1.0  0.52790  0.39990  0.52123  1.0000
  O   O5        1.0  0.58120  0.33980  0.03122  1.0000
  O   O6        1.0  0.41880  0.83980  0.46878  1.0000
  O   O7        1.0  0.41880  0.66020  0.96878  1.0000
  O   O8        1.0  0.58120  0.16020  0.53122  1.0000
  O   O9        1.0  0.89150  0.13760  0.23435  1.0000
  O   O10       1.0  0.10850  0.63760  0.26565  1.0000
  O   O11       1.0  0.10850  0.86240  0.76565  1.0000
  O   O12       1.0  0.89150  0.36240  0.73435  1.0000
  O   O13       1.0  0.92900  0.37650  0.22536  1.0000
  O   O14       1.0  0.07100  0.87650  0.27464  1.0000
  O   O15       1.0  0.07100  0.62350  0.77464  1.0000
  O   O16       1.0  0.92900  0.12350  0.72536  1.0000
  O   O17       1.0  0.58770  0.20440  0.13450  1.0000
  O   O18       1.0  0.41230  0.70440  0.36550  1.0000
  O   O19       1.0  0.41230  0.79560  0.86550  1.0000
  O   O20       1.0  0.58770  0.29560  0.63450  1.0000
  O   O21       1.0  0.70930  0.27390  0.21039  1.0000
  O   O22       1.0  0.29070  0.77390  0.28961  1.0000
  O   O23       1.0  0.29070  0.72610  0.78961  1.0000
  O   O24       1.0  0.70930  0.22610  0.71039  1.0000
  O   O25       1.0  0.60370  0.27440  0.42150  1.0000
  O   O26       1.0  0.39630  0.77440  0.07850  1.0000
  O   O27       1.0  0.39630  0.72560  0.57850  1.0000
  O   O28       1.0  0.60370  0.22560  0.92150  1.0000
  O   O29       1.0  0.41660  0.26040  0.42850  1.0000
  O   O30       1.0  0.58340  0.76040  0.07150  1.0000
  O   O31       1.0  0.58340  0.73960  0.57150  1.0000
  O   O32       1.0  0.41660  0.23960  0.92850  1.0000
  O   O33       1.0  0.10700  0.23660  0.20802  1.0000
  O   O34       1.0  0.89300  0.73660  0.29198  1.0000
  O   O35       1.0  0.89300  0.76340  0.79198  1.0000
  O   O36       1.0  0.10700  0.26340  0.70802  1.0000
  O   O37       1.0  0.15060  0.08590  0.25460  1.0000
  O   O38       1.0  0.84940  0.58590  0.24540  1.0000
  O   O39       1.0  0.84940  0.91410  0.74540  1.0000
  O   O40       1.0  0.15060  0.41410  0.75460  1.0000
  O   O41       1.0  0.18280  0.11490  0.15011  1.0000
  O   O42       1.0  0.81720  0.61490  0.34989  1.0000
  O   O43       1.0  0.81720  0.88510  0.84989  1.0000
  O   O44       1.0  0.18280  0.38510  0.65011  1.0000
  O   O45       1.0  0.75620  0.19270  0.04210  1.0000
  O   O46       1.0  0.24380  0.69270  0.45790  1.0000
  O   O47       1.0  0.24380  0.80730  0.95790  1.0000
  O   O48       1.0  0.75620  0.30730  0.54210  1.0000
  O   O49       1.0  0.87910  0.24630  0.12270  1.0000
  O   O50       1.0  0.12090  0.74630  0.37730  1.0000
  O   O51       1.0  0.12090  0.75370  0.87730  1.0000
  O   O52       1.0  0.87910  0.25370  0.62270  1.0000
  O   O53       1.0  0.86510  0.22380  0.83335  1.0000
  O   O54       1.0  0.13490  0.72380  0.66665  1.0000
  O   O55       1.0  0.13490  0.77620  0.16665  1.0000
  O   O56       1.0  0.86510  0.27620  0.33335  1.0000
  O   O57       1.0  0.05090  0.24650  0.82740  1.0000
  O   O58       1.0  0.94910  0.74650  0.67260  1.0000
  O   O59       1.0  0.94910  0.75350  0.17260  1.0000
  O   O60       1.0  0.05090  0.25350  0.32740  1.0000
  O   O61       1.0  0.36340  0.24030  0.04960  1.0000
  O   O62       1.0  0.63660  0.74030  0.45040  1.0000
  O   O63       1.0  0.63660  0.75970  0.95040  1.0000
  O   O64       1.0  0.36340  0.25970  0.54960  1.0000
  O   O65       1.0  0.28230  0.34550  0.11571  1.0000
  O   O66       1.0  0.71770  0.84550  0.38429  1.0000
  O   O67       1.0  0.71770  0.65450  0.88429  1.0000
  O   O68       1.0  0.28230  0.15450  0.61571  1.0000
  O   O69       1.0  0.31720  0.39730  0.01531  1.0000
  O   O70       1.0  0.68280  0.89730  0.48469  1.0000
  O   O71       1.0  0.68280  0.60270  0.98469  1.0000
  O   O72       1.0  0.31720  0.10270  0.51531  1.0000
  C   C1        1.0  0.61220  0.23440  0.18800  1.0000
  C   C2        1.0  0.38780  0.73440  0.31200  1.0000
  C   C3        1.0  0.38780  0.76560  0.81200  1.0000
  C   C4        1.0  0.61220  0.26560  0.68800  1.0000
  C   C5        1.0  0.49740  0.26210  0.39580  1.0000
  C   C6        1.0  0.50260  0.76210  0.10420  1.0000
  C   C7        1.0  0.50260  0.73790  0.60420  1.0000
  C   C8        1.0  0.49740  0.23790  0.89580  1.0000
  C   C9        1.0  0.52250  0.22630  0.22920  1.0000
  C   C10       1.0  0.47750  0.72630  0.27080  1.0000
  C   C11       1.0  0.47750  0.77370  0.77080  1.0000
  C   C12       1.0  0.52250  0.27370  0.72920  1.0000
  C   C13       1.0  0.55060  0.24860  0.29120  1.0000
  C   C14       1.0  0.44940  0.74860  0.20880  1.0000
  C   C15       1.0  0.44940  0.75140  0.70880  1.0000
  C   C16       1.0  0.55060  0.25140  0.79120  1.0000
  H   H1        1.0  0.62670  0.26800  0.30790  1.0000
  H   H2        1.0  0.37330  0.76800  0.19210  1.0000
  H   H3        1.0  0.37330  0.73200  0.69210  1.0000
  H   H4        1.0  0.62670  0.23200  0.80790  1.0000
  C   C17       1.0  0.46660  0.24240  0.32860  1.0000
  C   C18       1.0  0.53340  0.74240  0.17140  1.0000
  C   C19       1.0  0.53340  0.75760  0.67140  1.0000
  C   C20       1.0  0.46660  0.25760  0.82860  1.0000
  C   C21       1.0  0.35220  0.21490  0.30380  1.0000
  C   C22       1.0  0.64780  0.71490  0.19620  1.0000
  C   C23       1.0  0.64780  0.78510  0.69620  1.0000
  C   C24       1.0  0.35220  0.28510  0.80380  1.0000
  H   H5        1.0  0.29460  0.21230  0.32840  1.0000
  H   H6        1.0  0.70540  0.71230  0.17160  1.0000
  H   H7        1.0  0.70540  0.78770  0.67160  1.0000
  H   H8        1.0  0.29460  0.28770  0.82840  1.0000
  C   C25       1.0  0.32530  0.19110  0.24110  1.0000
  C   C26       1.0  0.67470  0.69110  0.25890  1.0000
  C   C27       1.0  0.67470  0.80890  0.75890  1.0000
  C   C28       1.0  0.32530  0.30890  0.74110  1.0000
  C   C29       1.0  0.40910  0.19660  0.20380  1.0000
  C   C30       1.0  0.59090  0.69660  0.29620  1.0000
  C   C31       1.0  0.59090  0.80340  0.79620  1.0000
  C   C32       1.0  0.40910  0.30340  0.70380  1.0000
  H   H9        1.0  0.39020  0.18070  0.16220  1.0000
  H   H10       1.0  0.60980  0.68070  0.33780  1.0000
  H   H11       1.0  0.60980  0.81930  0.83780  1.0000
  H   H12       1.0  0.39020  0.31930  0.66220  1.0000
  C   C33       1.0  0.85440  0.22670  0.06680  1.0000
  C   C34       1.0  0.14560  0.72670  0.43320  1.0000
  C   C35       1.0  0.14560  0.77330  0.93320  1.0000
  C   C36       1.0  0.85440  0.27330  0.56680  1.0000
  C   C37       1.0  0.97170  0.23800  0.85960  1.0000
  C   C38       1.0  0.02830  0.73800  0.64040  1.0000
  C   C39       1.0  0.02830  0.76200  0.14040  1.0000
  C   C40       1.0  0.97170  0.26200  0.35960  1.0000
  C   C41       1.0  0.94660  0.24160  0.02730  1.0000
  C   C42       1.0  0.05340  0.74160  0.47270  1.0000
  C   C43       1.0  0.05340  0.75840  0.97270  1.0000
  C   C44       1.0  0.94660  0.25840  0.52730  1.0000
  C   C45       1.0  0.91740  0.23060  0.96420  1.0000
  C   C46       1.0  0.08260  0.73060  0.53580  1.0000
  C   C47       1.0  0.08260  0.76940  0.03580  1.0000
  C   C48       1.0  0.91740  0.26940  0.46420  1.0000
  H   H13       1.0  0.84130  0.21280  0.94610  1.0000
  H   H14       1.0  0.15870  0.71280  0.55390  1.0000
  H   H15       1.0  0.15870  0.78720  0.05390  1.0000
  H   H16       1.0  0.84130  0.28720  0.44610  1.0000
  C   C49       1.0  0.00160  0.24630  0.92770  1.0000
  C   C50       1.0  0.99840  0.74630  0.57230  1.0000
  C   C51       1.0  0.99840  0.75370  0.07230  1.0000
  C   C52       1.0  0.00160  0.25370  0.42770  1.0000
  C   C53       1.0  0.11660  0.27320  0.95550  1.0000
  C   C54       1.0  0.88340  0.77320  0.54450  1.0000
  C   C55       1.0  0.88340  0.72680  0.04450  1.0000
  C   C56       1.0  0.11660  0.22680  0.45550  1.0000
  H   H17       1.0  0.17370  0.28390  0.93140  1.0000
  H   H18       1.0  0.82630  0.78390  0.56860  1.0000
  H   H19       1.0  0.82630  0.71610  0.06860  1.0000
  H   H20       1.0  0.17370  0.21610  0.43140  1.0000
  C   C57       1.0  0.14370  0.28350  0.01880  1.0000
  C   C58       1.0  0.85630  0.78350  0.48120  1.0000
  C   C59       1.0  0.85630  0.71650  0.98120  1.0000
  C   C60       1.0  0.14370  0.21650  0.51880  1.0000
  C   C61       1.0  0.06090  0.26910  0.05500  1.0000
  C   C62       1.0  0.93910  0.76910  0.44500  1.0000
  C   C63       1.0  0.93910  0.73090  0.94500  1.0000
  C   C64       1.0  0.06090  0.23090  0.55500  1.0000
  H   H21       1.0  0.08000  0.27750  0.09750  1.0000
  H   H22       1.0  0.92000  0.77750  0.40250  1.0000
  H   H23       1.0  0.92000  0.72250  0.90250  1.0000
  H   H24       1.0  0.08000  0.22250  0.59750  1.0000
