data_image0
_chemical_formula_structural       Cr2Na2O24C4H4C4H4C4H4
_chemical_formula_sum              "Cr2 Na2 O24 C12 H12"
_cell_length_a       9.261
_cell_length_b       8.5585
_cell_length_c       12.2971
_cell_angle_alpha    90
_cell_angle_beta     91.923
_cell_angle_gamma    90

_space_group_name_H-M_alt    "P 1"
_space_group_IT_number       1

loop_
  _space_group_symop_operation_xyz
  'x, y, z'

loop_
  _atom_site_type_symbol
  _atom_site_label
  _atom_site_symmetry_multiplicity
  _atom_site_fract_x
  _atom_site_fract_y
  _atom_site_fract_z
  _atom_site_occupancy
  Cr  Cr1       1.0  0.25000  0.73996  0.75000  1.0000
  Cr  Cr2       1.0  0.75000  0.26004  0.25000  1.0000
  Na  Na1       1.0  0.75000  0.23445  0.75000  1.0000
  Na  Na2       1.0  0.25000  0.76555  0.25000  1.0000
  O   O1        1.0  0.11075  0.58683  0.69327  1.0000
  O   O2        1.0  0.38925  0.58683  0.80673  1.0000
  O   O3        1.0  0.88925  0.41317  0.30673  1.0000
  O   O4        1.0  0.61075  0.41317  0.19327  1.0000
  O   O5        1.0  0.93150  0.42042  0.70440  1.0000
  O   O6        1.0  0.56850  0.42042  0.79560  1.0000
  O   O7        1.0  0.06850  0.57958  0.29560  1.0000
  O   O8        1.0  0.43150  0.57958  0.20440  1.0000
  O   O9        1.0  0.34427  0.74235  0.60905  1.0000
  O   O10       1.0  0.15573  0.74235  0.89095  1.0000
  O   O11       1.0  0.65573  0.25765  0.39095  1.0000
  O   O12       1.0  0.84427  0.25765  0.10905  1.0000
  O   O13       1.0  0.34936  0.75823  0.43124  1.0000
  O   O14       1.0  0.15064  0.75823  0.06876  1.0000
  O   O15       1.0  0.65064  0.24177  0.56876  1.0000
  O   O16       1.0  0.84936  0.24177  0.93124  1.0000
  O   O17       1.0  0.38058  0.90946  0.80069  1.0000
  O   O18       1.0  0.11942  0.90946  0.69931  1.0000
  O   O19       1.0  0.61942  0.09054  0.19931  1.0000
  O   O20       1.0  0.88058  0.09054  0.30069  1.0000
  O   O21       1.0  0.57588  0.05174  0.81671  1.0000
  O   O22       1.0  0.92412  0.05174  0.68329  1.0000
  O   O23       1.0  0.42412  0.94826  0.18329  1.0000
  O   O24       1.0  0.07588  0.94826  0.31671  1.0000
  C   C1        1.0  0.03350  0.49197  0.74191  1.0000
  C   C2        1.0  0.46650  0.49197  0.75809  1.0000
  C   C3        1.0  0.96650  0.50803  0.25809  1.0000
  C   C4        1.0  0.53350  0.50803  0.24191  1.0000
  H   H1        1.0  0.05720  0.47470  0.81500  1.0000
  H   H2        1.0  0.44280  0.47470  0.68500  1.0000
  H   H3        1.0  0.94280  0.52530  0.18500  1.0000
  H   H4        1.0  0.55720  0.52530  0.31500  1.0000
  C   C5        1.0  0.28531  0.75606  0.51590  1.0000
  C   C6        1.0  0.21469  0.75606  0.98410  1.0000
  C   C7        1.0  0.71469  0.24394  0.48410  1.0000
  C   C8        1.0  0.78531  0.24394  0.01590  1.0000
  H   H5        1.0  0.18520  0.76520  0.51150  1.0000
  H   H6        1.0  0.31480  0.76520  0.98850  1.0000
  H   H7        1.0  0.81480  0.23480  0.48850  1.0000
  H   H8        1.0  0.68520  0.23480  0.01150  1.0000
  C   C9        1.0  0.51126  0.93667  0.78372  1.0000
  C   C10       1.0  0.98874  0.93667  0.71628  1.0000
  C   C11       1.0  0.48874  0.06333  0.21628  1.0000
  C   C12       1.0  0.01126  0.06333  0.28372  1.0000
  H   H9        1.0  0.56170  0.86420  0.74340  1.0000
  H   H10       1.0  0.93830  0.86420  0.75660  1.0000
  H   H11       1.0  0.43830  0.13580  0.25660  1.0000
  H   H12       1.0  0.06170  0.13580  0.24340  1.0000
