data_image0
_chemical_formula_structural       Na4Al4O48C4H4C4H4C4H4C4H4C4H4C4H4
_chemical_formula_sum              "Na4 Al4 O48 C24 H24"
_cell_length_a       12.2888
_cell_length_b       12.416
_cell_length_c       12.7236
_cell_angle_alpha    90
_cell_angle_beta     90.02
_cell_angle_gamma    90

_space_group_name_H-M_alt    "P 1"
_space_group_IT_number       1

loop_
  _space_group_symop_operation_xyz
  'x, y, z'

loop_
  _atom_site_type_symbol
  _atom_site_label
  _atom_site_symmetry_multiplicity
  _atom_site_fract_x
  _atom_site_fract_y
  _atom_site_fract_z
  _atom_site_occupancy
  Na  Na1       1.0  0.24733  0.75709  0.99365  1.0000
  Na  Na2       1.0  0.25267  0.25709  0.50635  1.0000
  Na  Na3       1.0  0.75267  0.24291  0.00635  1.0000
  Na  Na4       1.0  0.74733  0.74291  0.49365  1.0000
  Al  Al1       1.0  0.24731  0.75413  0.49802  1.0000
  Al  Al2       1.0  0.25269  0.25413  0.00198  1.0000
  Al  Al3       1.0  0.75269  0.24587  0.50198  1.0000
  Al  Al4       1.0  0.74731  0.74587  0.99802  1.0000
  O   O1        1.0  0.28623  0.73802  0.63994  1.0000
  O   O2        1.0  0.21377  0.23802  0.86006  1.0000
  O   O3        1.0  0.71377  0.26198  0.36006  1.0000
  O   O4        1.0  0.78623  0.76198  0.13994  1.0000
  O   O5        1.0  0.28267  0.74809  0.81153  1.0000
  O   O6        1.0  0.21733  0.24809  0.68847  1.0000
  O   O7        1.0  0.71733  0.25191  0.18847  1.0000
  O   O8        1.0  0.78267  0.75191  0.31153  1.0000
  O   O9        1.0  0.29539  0.61032  0.47393  1.0000
  O   O10       1.0  0.20461  0.11032  0.02607  1.0000
  O   O11       1.0  0.70461  0.38968  0.52607  1.0000
  O   O12       1.0  0.79539  0.88968  0.97393  1.0000
  O   O13       1.0  0.32065  0.43716  0.50183  1.0000
  O   O14       1.0  0.17935  0.93716  0.99817  1.0000
  O   O15       1.0  0.67935  0.56284  0.49817  1.0000
  O   O16       1.0  0.82065  0.06284  0.00183  1.0000
  O   O17       1.0  0.20556  0.75507  0.35471  1.0000
  O   O18       1.0  0.29444  0.25507  0.14529  1.0000
  O   O19       1.0  0.79444  0.24493  0.64529  1.0000
  O   O20       1.0  0.70556  0.74493  0.85471  1.0000
  O   O21       1.0  0.21696  0.75440  0.18279  1.0000
  O   O22       1.0  0.28304  0.25440  0.31721  1.0000
  O   O23       1.0  0.78304  0.24560  0.81721  1.0000
  O   O24       1.0  0.71696  0.74560  0.68279  1.0000
  O   O25       1.0  0.19592  0.89533  0.52028  1.0000
  O   O26       1.0  0.30408  0.39533  0.97972  1.0000
  O   O27       1.0  0.80408  0.10467  0.47972  1.0000
  O   O28       1.0  0.69592  0.60467  0.02028  1.0000
  O   O29       1.0  0.19533  0.07319  0.52048  1.0000
  O   O30       1.0  0.30467  0.57319  0.97952  1.0000
  O   O31       1.0  0.80467  0.92681  0.47952  1.0000
  O   O32       1.0  0.69533  0.42681  0.02048  1.0000
  O   O33       1.0  0.38711  0.80666  0.46960  1.0000
  O   O34       1.0  0.11289  0.30666  0.03040  1.0000
  O   O35       1.0  0.61289  0.19334  0.53040  1.0000
  O   O36       1.0  0.88711  0.69334  0.96960  1.0000
  O   O37       1.0  0.56506  0.80158  0.49117  1.0000
  O   O38       1.0  0.93494  0.30158  0.00883  1.0000
  O   O39       1.0  0.43494  0.19842  0.50883  1.0000
  O   O40       1.0  0.06506  0.69842  0.99117  1.0000
  O   O41       1.0  0.10715  0.70024  0.53220  1.0000
  O   O42       1.0  0.39285  0.20024  0.96780  1.0000
  O   O43       1.0  0.89285  0.29976  0.46780  1.0000
  O   O44       1.0  0.60715  0.79976  0.03220  1.0000
  O   O45       1.0  0.92953  0.68356  0.52463  1.0000
  O   O46       1.0  0.57047  0.18356  0.97537  1.0000
  O   O47       1.0  0.07047  0.31644  0.47537  1.0000
  O   O48       1.0  0.42953  0.81644  0.02463  1.0000
  C   C1        1.0  0.25426  0.77647  0.72530  1.0000
  C   C2        1.0  0.24574  0.27647  0.77470  1.0000
  C   C3        1.0  0.74574  0.22353  0.27470  1.0000
  C   C4        1.0  0.75426  0.72353  0.22530  1.0000
  H   H1        1.0  0.20380  0.83220  0.72190  1.0000
  H   H2        1.0  0.29620  0.33220  0.77810  1.0000
  H   H3        1.0  0.79620  0.16780  0.27810  1.0000
  H   H4        1.0  0.70380  0.66780  0.22190  1.0000
  C   C5        1.0  0.28269  0.52480  0.52605  1.0000
  C   C6        1.0  0.21731  0.02480  0.97395  1.0000
  C   C7        1.0  0.71731  0.47520  0.47395  1.0000
  C   C8        1.0  0.78269  0.97520  0.02605  1.0000
  H   H5        1.0  0.24150  0.52870  0.58730  1.0000
  H   H6        1.0  0.25850  0.02870  0.91270  1.0000
  H   H7        1.0  0.75850  0.47130  0.41270  1.0000
  H   H8        1.0  0.74150  0.97130  0.08730  1.0000
  C   C9        1.0  0.24639  0.78256  0.26965  1.0000
  C   C10       1.0  0.25361  0.28256  0.23035  1.0000
  C   C11       1.0  0.75361  0.21744  0.73035  1.0000
  C   C12       1.0  0.74639  0.71744  0.76965  1.0000
  H   H9        1.0  0.30540  0.82940  0.27270  1.0000
  H   H10       1.0  0.19460  0.32940  0.22730  1.0000
  H   H11       1.0  0.69460  0.17060  0.72730  1.0000
  H   H12       1.0  0.80540  0.67060  0.77270  1.0000
  C   C13       1.0  0.23066  0.98626  0.49185  1.0000
  C   C14       1.0  0.26934  0.48626  0.00815  1.0000
  C   C15       1.0  0.76934  0.01374  0.50815  1.0000
  C   C16       1.0  0.73066  0.51374  0.99185  1.0000
  H   H13       1.0  0.28850  0.98710  0.44480  1.0000
  H   H14       1.0  0.21150  0.48710  0.05520  1.0000
  H   H15       1.0  0.71150  0.01290  0.55520  1.0000
  H   H16       1.0  0.78850  0.51290  0.94480  1.0000
  C   C17       1.0  0.48010  0.76374  0.46622  1.0000
  C   C18       1.0  0.01990  0.26374  0.03378  1.0000
  C   C19       1.0  0.51990  0.23626  0.53378  1.0000
  C   C20       1.0  0.98010  0.73626  0.96622  1.0000
  H   H17       1.0  0.48240  0.69350  0.44100  1.0000
  H   H18       1.0  0.01760  0.19350  0.05900  1.0000
  H   H19       1.0  0.51760  0.30650  0.55900  1.0000
  H   H20       1.0  0.98240  0.80650  0.94100  1.0000
  C   C21       1.0  0.01522  0.72415  0.49618  1.0000
  C   C22       1.0  0.48478  0.22415  0.00382  1.0000
  C   C23       1.0  0.98478  0.27585  0.50382  1.0000
  C   C24       1.0  0.51522  0.77585  0.99618  1.0000
  H   H21       1.0  0.01200  0.77660  0.44410  1.0000
  H   H22       1.0  0.48800  0.27660  0.05590  1.0000
  H   H23       1.0  0.98800  0.22340  0.55590  1.0000
  H   H24       1.0  0.51200  0.72340  0.94410  1.0000
