data_image0
_chemical_formula_structural       Np2S6O30C10H26
_chemical_formula_sum              "Np2 S6 O30 C10 H26"
_cell_length_a       9.052
_cell_length_b       10.028
_cell_length_c       11.6053
_cell_angle_alpha    77.244
_cell_angle_beta     74.089
_cell_angle_gamma    73.361

_space_group_name_H-M_alt    "P 1"
_space_group_IT_number       1

loop_
  _space_group_symop_operation_xyz
  'x, y, z'

loop_
  _atom_site_type_symbol
  _atom_site_label
  _atom_site_symmetry_multiplicity
  _atom_site_fract_x
  _atom_site_fract_y
  _atom_site_fract_z
  _atom_site_occupancy
  Np  Np1       1.0  0.09337  0.88225  0.25224  1.0000
  Np  Np2       1.0  0.90663  0.11775  0.74776  1.0000
  S   S1        1.0  0.16063  0.63514  0.52727  1.0000
  S   S2        1.0  0.83937  0.36486  0.47273  1.0000
  S   S3        1.0  0.15867  0.61762  0.06158  1.0000
  S   S4        1.0  0.84133  0.38238  0.93842  1.0000
  S   S5        1.0  0.52504  0.77118  0.21073  1.0000
  S   S6        1.0  0.47496  0.22882  0.78927  1.0000
  O   O1        1.0  0.18480  0.95984  0.03273  1.0000
  O   O2        1.0  0.81520  0.04016  0.96727  1.0000
  O   O3        1.0  0.11476  0.02382  0.85386  1.0000
  O   O4        1.0  0.88524  0.97618  0.14614  1.0000
  O   O5        1.0  0.18273  0.96544  0.40027  1.0000
  O   O6        1.0  0.81727  0.03456  0.59973  1.0000
  O   O7        1.0  0.11634  0.02766  0.58528  1.0000
  O   O8        1.0  0.88366  0.97234  0.41472  1.0000
  O   O9        1.0  0.06398  0.13464  0.20845  1.0000
  O   O10       1.0  0.93602  0.86536  0.79155  1.0000
  O   O11       1.0  0.36290  0.85285  0.19993  1.0000
  O   O12       1.0  0.63710  0.14715  0.80007  1.0000
  O   O13       1.0  0.15824  0.69167  0.39777  1.0000
  O   O14       1.0  0.84176  0.30833  0.60223  1.0000
  O   O15       1.0  0.88947  0.75254  0.30898  1.0000
  O   O16       1.0  0.11053  0.24746  0.69102  1.0000
  O   O17       1.0  0.05660  0.71810  0.98816  1.0000
  O   O18       1.0  0.94340  0.28190  0.01184  1.0000
  O   O19       1.0  0.02820  0.71759  0.60534  1.0000
  O   O20       1.0  0.97180  0.28241  0.39466  1.0000
  O   O21       1.0  0.18796  0.68606  0.15076  1.0000
  O   O22       1.0  0.81204  0.31394  0.84924  1.0000
  O   O23       1.0  0.58611  0.84422  0.27678  1.0000
  O   O24       1.0  0.41389  0.15578  0.72322  1.0000
  O   O25       1.0  0.17006  0.48598  0.55010  1.0000
  O   O26       1.0  0.82994  0.51402  0.44990  1.0000
  O   O27       1.0  0.53349  0.62484  0.25914  1.0000
  O   O28       1.0  0.46651  0.37516  0.74086  1.0000
  O   O29       1.0  0.30548  0.54257  0.99278  1.0000
  O   O30       1.0  0.69452  0.45743  0.00722  1.0000
  C   C1        1.0  0.33540  0.65860  0.54890  1.0000
  C   C2        1.0  0.66460  0.34140  0.45110  1.0000
  C   C3        1.0  0.08620  0.99837  0.49544  1.0000
  C   C4        1.0  0.91380  0.00163  0.50456  1.0000
  C   C5        1.0  0.08620  0.99520  0.96820  1.0000
  C   C6        1.0  0.91380  0.00480  0.03180  1.0000
  C   C7        1.0  0.05550  0.49180  0.14760  1.0000
  C   C8        1.0  0.94450  0.50820  0.85240  1.0000
  C   C9        1.0  0.63670  0.78210  0.06110  1.0000
  C   C10       1.0  0.36330  0.21790  0.93890  1.0000
  H   H1        1.0  0.04900  0.43600  0.09700  1.0000
  H   H2        1.0  0.95100  0.56400  0.90300  1.0000
  H   H3        1.0  0.32400  0.76200  0.54000  1.0000
  H   H4        1.0  0.67600  0.23800  0.46000  1.0000
  H   H5        1.0  0.59400  0.73100  0.01900  1.0000
  H   H6        1.0  0.40600  0.26900  0.98100  1.0000
  H   H7        1.0  0.62200  0.88000  0.02900  1.0000
  H   H8        1.0  0.37800  0.12000  0.97100  1.0000
  H   H9        1.0  0.35000  0.60600  0.62600  1.0000
  H   H10       1.0  0.65000  0.39400  0.37400  1.0000
  H   H11       1.0  0.11500  0.43300  0.20500  1.0000
  H   H12       1.0  0.88500  0.56700  0.79500  1.0000
  H   H13       1.0  0.88600  0.67800  0.36100  1.0000
  H   H14       1.0  0.11400  0.32200  0.63900  1.0000
  H   H15       1.0  0.96100  0.53300  0.18600  1.0000
  H   H16       1.0  0.03900  0.46700  0.81400  1.0000
  H   H17       1.0  0.80800  0.78600  0.30200  1.0000
  H   H18       1.0  0.19200  0.21400  0.69800  1.0000
  H   H19       1.0  0.41600  0.61800  0.49400  1.0000
  H   H20       1.0  0.58400  0.38200  0.50600  1.0000
  H   H21       1.0  0.74200  0.73600  0.06600  1.0000
  H   H22       1.0  0.25800  0.26400  0.93400  1.0000
  H   H23       1.0  0.02600  0.18300  0.15300  1.0000
  H   H24       1.0  0.97400  0.81700  0.84700  1.0000
  H   H25       1.0  0.03800  0.17600  0.25800  1.0000
  H   H26       1.0  0.96200  0.82400  0.74200  1.0000
