data_image0
_chemical_formula_structural       Zn2O16C6H2C6H2C8H2C2H2C2H2C4H2C6H2C2H2C2H2C4H2C2
_chemical_formula_sum              "Zn2 O16 C44 H20"
_cell_length_a       9.5418
_cell_length_b       11.272
_cell_length_c       12.7837
_cell_angle_alpha    112.512
_cell_angle_beta     90.364
_cell_angle_gamma    91.241

_space_group_name_H-M_alt    "P 1"
_space_group_IT_number       1

loop_
  _space_group_symop_operation_xyz
  'x, y, z'

loop_
  _atom_site_type_symbol
  _atom_site_label
  _atom_site_symmetry_multiplicity
  _atom_site_fract_x
  _atom_site_fract_y
  _atom_site_fract_z
  _atom_site_occupancy
  Zn  Zn1       1.0  0.86230  0.51020  0.06060  1.0000
  Zn  Zn2       1.0  0.13770  0.48980  0.93940  1.0000
  O   O1        1.0  0.68600  0.47600  0.12450  1.0000
  O   O2        1.0  0.31400  0.52400  0.87550  1.0000
  O   O3        1.0  0.61300  0.58600  0.29870  1.0000
  O   O4        1.0  0.38700  0.41400  0.70130  1.0000
  O   O5        1.0  0.83500  0.08700  0.43800  1.0000
  O   O6        1.0  0.16500  0.91300  0.56200  1.0000
  O   O7        1.0  0.63400  0.98700  0.36900  1.0000
  O   O8        1.0  0.36600  0.01300  0.63100  1.0000
  O   O9        1.0  0.09500  0.68200  0.02610  1.0000
  O   O10       1.0  0.90500  0.31800  0.97390  1.0000
  O   O11       1.0  0.88800  0.70510  0.11290  1.0000
  O   O12       1.0  0.11200  0.29490  0.88710  1.0000
  O   O13       1.0  0.00400  0.51000  0.18060  1.0000
  O   O14       1.0  0.99600  0.49000  0.81940  1.0000
  O   O15       1.0  0.20700  0.48700  0.08870  1.0000
  O   O16       1.0  0.79300  0.51300  0.91130  1.0000
  C   C1        1.0  0.65000  0.48500  0.22300  1.0000
  C   C2        1.0  0.35000  0.51500  0.77700  1.0000
  C   C3        1.0  0.65400  0.36400  0.24800  1.0000
  C   C4        1.0  0.34600  0.63600  0.75200  1.0000
  C   C5        1.0  0.77200  0.28800  0.21500  1.0000
  C   C6        1.0  0.22800  0.71200  0.78500  1.0000
  H   H1        1.0  0.83550  0.30470  0.16730  1.0000
  H   H2        1.0  0.16450  0.69530  0.83270  1.0000
  C   C7        1.0  0.79600  0.18800  0.25100  1.0000
  C   C8        1.0  0.20400  0.81200  0.74900  1.0000
  C   C9        1.0  0.70000  0.16500  0.32400  1.0000
  C   C10       1.0  0.30000  0.83500  0.67600  1.0000
  C   C11       1.0  0.57700  0.23500  0.34900  1.0000
  C   C12       1.0  0.42300  0.76500  0.65100  1.0000
  H   H3        1.0  0.51060  0.21470  0.39280  1.0000
  H   H4        1.0  0.48940  0.78530  0.60720  1.0000
  C   C13       1.0  0.55100  0.33300  0.31200  1.0000
  C   C14       1.0  0.44900  0.66700  0.68800  1.0000
  C   C15       1.0  0.72500  0.07200  0.38000  1.0000
  C   C16       1.0  0.27500  0.92800  0.62000  1.0000
  C   C17       1.0  0.91900  0.10400  0.20500  1.0000
  C   C18       1.0  0.08100  0.89600  0.79500  1.0000
  C   C19       1.0  0.04400  0.15500  0.18400  1.0000
  C   C20       1.0  0.95600  0.84500  0.81600  1.0000
  H   H5        1.0  0.05550  0.24370  0.20620  1.0000
  H   H6        1.0  0.94450  0.75630  0.79380  1.0000
  C   C21       1.0  0.15400  0.07600  0.13200  1.0000
  C   C22       1.0  0.84600  0.92400  0.86800  1.0000
  H   H7        1.0  0.23730  0.11190  0.11820  1.0000
  H   H8        1.0  0.76270  0.88810  0.88180  1.0000
  C   C23       1.0  0.13900  0.94500  0.09900  1.0000
  C   C24       1.0  0.86100  0.05500  0.90100  1.0000
  H   H9        1.0  0.21210  0.89200  0.06310  1.0000
  H   H10       1.0  0.78790  0.10800  0.93690  1.0000
  C   C25       1.0  0.01500  0.89200  0.12000  1.0000
  C   C26       1.0  0.98500  0.10800  0.88000  1.0000
  C   C27       1.0  0.90600  0.97200  0.17200  1.0000
  C   C28       1.0  0.09400  0.02800  0.82800  1.0000
  H   H11       1.0  0.82290  0.93610  0.18540  1.0000
  H   H12       1.0  0.17710  0.06390  0.81460  1.0000
  C   C29       1.0  0.99500  0.74900  0.08500  1.0000
  C   C30       1.0  0.00500  0.25100  0.91500  1.0000
  C   C31       1.0  0.41200  0.39700  0.33500  1.0000
  C   C32       1.0  0.58800  0.60300  0.66500  1.0000
  C   C33       1.0  0.34800  0.43000  0.44100  1.0000
  C   C34       1.0  0.65200  0.57000  0.55900  1.0000
  H   H13       1.0  0.39330  0.41450  0.49880  1.0000
  H   H14       1.0  0.60670  0.58550  0.50120  1.0000
  C   C35       1.0  0.21700  0.48500  0.45800  1.0000
  C   C36       1.0  0.78300  0.51500  0.54200  1.0000
  H   H15       1.0  0.17660  0.50850  0.52920  1.0000
  H   H16       1.0  0.82340  0.49150  0.47080  1.0000
  C   C37       1.0  0.14700  0.50500  0.37300  1.0000
  C   C38       1.0  0.85300  0.49500  0.62700  1.0000
  H   H17       1.0  0.05880  0.53990  0.38520  1.0000
  H   H18       1.0  0.94120  0.46010  0.61480  1.0000
  C   C39       1.0  0.20800  0.47200  0.26700  1.0000
  C   C40       1.0  0.79200  0.52800  0.73300  1.0000
  C   C41       1.0  0.34000  0.41900  0.25000  1.0000
  C   C42       1.0  0.66000  0.58100  0.75000  1.0000
  H   H19       1.0  0.38180  0.39810  0.17970  1.0000
  H   H20       1.0  0.61820  0.60190  0.82030  1.0000
  C   C43       1.0  0.13400  0.49200  0.17200  1.0000
  C   C44       1.0  0.86600  0.50800  0.82800  1.0000
