data_image0
_chemical_formula_structural       U8O88N24C16H16C8H16C8H16C8H16C16H16C8H16C32
_chemical_formula_sum              "U8 O88 N24 C96 H96"
_cell_length_a       15.1527
_cell_length_b       15.992
_cell_length_c       17.3776
_cell_angle_alpha    90
_cell_angle_beta     90
_cell_angle_gamma    90

_space_group_name_H-M_alt    "P 1"
_space_group_IT_number       1

loop_
  _space_group_symop_operation_xyz
  'x, y, z'

loop_
  _atom_site_type_symbol
  _atom_site_label
  _atom_site_symmetry_multiplicity
  _atom_site_fract_x
  _atom_site_fract_y
  _atom_site_fract_z
  _atom_site_occupancy
  U   U1        1.0  0.24625  0.03081  0.57302  1.0000
  U   U2        1.0  0.25375  0.96919  0.07302  1.0000
  U   U3        1.0  0.75375  0.53081  0.92698  1.0000
  U   U4        1.0  0.74625  0.46919  0.42698  1.0000
  U   U5        1.0  0.75375  0.96919  0.42698  1.0000
  U   U6        1.0  0.74625  0.03081  0.92698  1.0000
  U   U7        1.0  0.24625  0.46919  0.07302  1.0000
  U   U8        1.0  0.25375  0.53081  0.57302  1.0000
  O   O1        1.0  0.27146  0.14886  0.66034  1.0000
  O   O2        1.0  0.22854  0.85114  0.16034  1.0000
  O   O3        1.0  0.72854  0.64886  0.83966  1.0000
  O   O4        1.0  0.77146  0.35114  0.33966  1.0000
  O   O5        1.0  0.72854  0.85114  0.33966  1.0000
  O   O6        1.0  0.77146  0.14886  0.83966  1.0000
  O   O7        1.0  0.27146  0.35114  0.16034  1.0000
  O   O8        1.0  0.22854  0.64886  0.66034  1.0000
  O   O9        1.0  0.14094  0.14229  0.60787  1.0000
  O   O10       1.0  0.35906  0.85771  0.10787  1.0000
  O   O11       1.0  0.85906  0.64229  0.89213  1.0000
  O   O12       1.0  0.64094  0.35771  0.39213  1.0000
  O   O13       1.0  0.85906  0.85771  0.39213  1.0000
  O   O14       1.0  0.64094  0.14229  0.89213  1.0000
  O   O15       1.0  0.14094  0.35771  0.10787  1.0000
  O   O16       1.0  0.35906  0.64229  0.60787  1.0000
  O   O17       1.0  0.10669  0.47706  0.00187  1.0000
  O   O18       1.0  0.39331  0.52294  0.50187  1.0000
  O   O19       1.0  0.89331  0.97706  0.49813  1.0000
  O   O20       1.0  0.60669  0.02294  0.99813  1.0000
  O   O21       1.0  0.89331  0.52294  0.99813  1.0000
  O   O22       1.0  0.60669  0.47706  0.49813  1.0000
  O   O23       1.0  0.10669  0.02294  0.50187  1.0000
  O   O24       1.0  0.39331  0.97706  0.00187  1.0000
  O   O25       1.0  0.20019  0.57621  0.98025  1.0000
  O   O26       1.0  0.29981  0.42379  0.48025  1.0000
  O   O27       1.0  0.79981  0.07621  0.51975  1.0000
  O   O28       1.0  0.70019  0.92379  0.01975  1.0000
  O   O29       1.0  0.79981  0.42379  0.01975  1.0000
  O   O30       1.0  0.70019  0.57621  0.51975  1.0000
  O   O31       1.0  0.20019  0.92379  0.48025  1.0000
  O   O32       1.0  0.29981  0.07621  0.98025  1.0000
  O   O33       1.0  0.60521  0.53128  0.87018  1.0000
  O   O34       1.0  0.89479  0.46872  0.37018  1.0000
  O   O35       1.0  0.39479  0.03128  0.62982  1.0000
  O   O36       1.0  0.10521  0.96872  0.12982  1.0000
  O   O37       1.0  0.39479  0.46872  0.12982  1.0000
  O   O38       1.0  0.10521  0.53128  0.62982  1.0000
  O   O39       1.0  0.60521  0.96872  0.37018  1.0000
  O   O40       1.0  0.89479  0.03128  0.87018  1.0000
  O   O41       1.0  0.63234  0.43023  0.95084  1.0000
  O   O42       1.0  0.86766  0.56977  0.45084  1.0000
  O   O43       1.0  0.36766  0.93023  0.54916  1.0000
  O   O44       1.0  0.13234  0.06977  0.04916  1.0000
  O   O45       1.0  0.36766  0.56977  0.04916  1.0000
  O   O46       1.0  0.13234  0.43023  0.54916  1.0000
  O   O47       1.0  0.63234  0.06977  0.45084  1.0000
  O   O48       1.0  0.86766  0.93023  0.95084  1.0000
  O   O49       1.0  0.09704  0.40342  0.79016  1.0000
  O   O50       1.0  0.40296  0.59658  0.29016  1.0000
  O   O51       1.0  0.90296  0.90342  0.70984  1.0000
  O   O52       1.0  0.59704  0.09658  0.20984  1.0000
  O   O53       1.0  0.90296  0.59658  0.20984  1.0000
  O   O54       1.0  0.59704  0.40342  0.70984  1.0000
  O   O55       1.0  0.09704  0.09658  0.29016  1.0000
  O   O56       1.0  0.40296  0.90342  0.79016  1.0000
  O   O57       1.0  0.32751  0.57775  0.83511  1.0000
  O   O58       1.0  0.17249  0.42225  0.33511  1.0000
  O   O59       1.0  0.67249  0.07775  0.66489  1.0000
  O   O60       1.0  0.82751  0.92225  0.16489  1.0000
  O   O61       1.0  0.67249  0.42225  0.16489  1.0000
  O   O62       1.0  0.82751  0.57775  0.66489  1.0000
  O   O63       1.0  0.32751  0.92225  0.33511  1.0000
  O   O64       1.0  0.17249  0.07775  0.83511  1.0000
  O   O65       1.0  0.37560  0.30310  0.79150  1.0000
  O   O66       1.0  0.12440  0.69690  0.29150  1.0000
  O   O67       1.0  0.62440  0.80310  0.70850  1.0000
  O   O68       1.0  0.87560  0.19690  0.20850  1.0000
  O   O69       1.0  0.62440  0.69690  0.20850  1.0000
  O   O70       1.0  0.87560  0.30310  0.70850  1.0000
  O   O71       1.0  0.37560  0.19690  0.29150  1.0000
  O   O72       1.0  0.12440  0.80310  0.79150  1.0000
  O   O73       1.0  0.28764  0.09266  0.49656  1.0000
  O   O74       1.0  0.21236  0.90734  0.99656  1.0000
  O   O75       1.0  0.71236  0.59266  0.00344  1.0000
  O   O76       1.0  0.78764  0.40734  0.50344  1.0000
  O   O77       1.0  0.71236  0.90734  0.50344  1.0000
  O   O78       1.0  0.78764  0.09266  0.00344  1.0000
  O   O79       1.0  0.28764  0.40734  0.99656  1.0000
  O   O80       1.0  0.21236  0.59266  0.49656  1.0000
  O   O81       1.0  0.20599  0.96753  0.64854  1.0000
  O   O82       1.0  0.29401  0.03247  0.14854  1.0000
  O   O83       1.0  0.79401  0.46753  0.85146  1.0000
  O   O84       1.0  0.70599  0.53247  0.35146  1.0000
  O   O85       1.0  0.79401  0.03247  0.35146  1.0000
  O   O86       1.0  0.70599  0.96753  0.85146  1.0000
  O   O87       1.0  0.20599  0.53247  0.14854  1.0000
  O   O88       1.0  0.29401  0.46753  0.64854  1.0000
  N   N1        1.0  0.23448  0.35112  0.79136  1.0000
  N   N2        1.0  0.26552  0.64888  0.29136  1.0000
  N   N3        1.0  0.76552  0.85112  0.70864  1.0000
  N   N4        1.0  0.73448  0.14888  0.20864  1.0000
  N   N5        1.0  0.76552  0.64888  0.20864  1.0000
  N   N6        1.0  0.73448  0.35112  0.70864  1.0000
  N   N7        1.0  0.23448  0.14888  0.29136  1.0000
  N   N8        1.0  0.26552  0.85112  0.79136  1.0000
  N   N9        1.0  0.20910  0.49260  0.81691  1.0000
  N   N10       1.0  0.29090  0.50740  0.31691  1.0000
  N   N11       1.0  0.79090  0.99260  0.68309  1.0000
  N   N12       1.0  0.70910  0.00740  0.18309  1.0000
  N   N13       1.0  0.79090  0.50740  0.18309  1.0000
  N   N14       1.0  0.70910  0.49260  0.68309  1.0000
  N   N15       1.0  0.20910  0.00740  0.31691  1.0000
  N   N16       1.0  0.29090  0.99260  0.81691  1.0000
  N   N17       1.0  0.35331  0.43978  0.81659  1.0000
  N   N18       1.0  0.14669  0.56022  0.31659  1.0000
  N   N19       1.0  0.64669  0.93978  0.68341  1.0000
  N   N20       1.0  0.85331  0.06022  0.18341  1.0000
  N   N21       1.0  0.64669  0.56022  0.18341  1.0000
  N   N22       1.0  0.85331  0.43978  0.68341  1.0000
  N   N23       1.0  0.35331  0.06022  0.31659  1.0000
  N   N24       1.0  0.14669  0.93978  0.81659  1.0000
  C   C1        1.0  0.19520  0.18000  0.64980  1.0000
  C   C2        1.0  0.30480  0.82000  0.14980  1.0000
  C   C3        1.0  0.80480  0.68000  0.85020  1.0000
  C   C4        1.0  0.69520  0.32000  0.35020  1.0000
  C   C5        1.0  0.80480  0.82000  0.35020  1.0000
  C   C6        1.0  0.69520  0.18000  0.85020  1.0000
  C   C7        1.0  0.19520  0.32000  0.14980  1.0000
  C   C8        1.0  0.30480  0.68000  0.64980  1.0000
  C   C9        1.0  0.17200  0.26240  0.68630  1.0000
  C   C10       1.0  0.32800  0.73760  0.18630  1.0000
  C   C11       1.0  0.82800  0.76240  0.81370  1.0000
  C   C12       1.0  0.67200  0.23760  0.31370  1.0000
  C   C13       1.0  0.82800  0.73760  0.31370  1.0000
  C   C14       1.0  0.67200  0.26240  0.81370  1.0000
  C   C15       1.0  0.17200  0.23760  0.18630  1.0000
  C   C16       1.0  0.32800  0.76240  0.68630  1.0000
  H   H1        1.0  0.10870  0.27050  0.68330  1.0000
  H   H2        1.0  0.39130  0.72950  0.18330  1.0000
  H   H3        1.0  0.89130  0.77050  0.81670  1.0000
  H   H4        1.0  0.60870  0.22950  0.31670  1.0000
  H   H5        1.0  0.89130  0.72950  0.31670  1.0000
  H   H6        1.0  0.60870  0.27050  0.81670  1.0000
  H   H7        1.0  0.10870  0.22950  0.18330  1.0000
  H   H8        1.0  0.39130  0.77050  0.68330  1.0000
  H   H9        1.0  0.20000  0.30700  0.65740  1.0000
  H   H10       1.0  0.30000  0.69300  0.15740  1.0000
  H   H11       1.0  0.80000  0.80700  0.84260  1.0000
  H   H12       1.0  0.70000  0.19300  0.34260  1.0000
  H   H13       1.0  0.80000  0.69300  0.34260  1.0000
  H   H14       1.0  0.70000  0.30700  0.84260  1.0000
  H   H15       1.0  0.20000  0.19300  0.15740  1.0000
  H   H16       1.0  0.30000  0.80700  0.65740  1.0000
  C   C17       1.0  0.20080  0.26810  0.77030  1.0000
  C   C18       1.0  0.29920  0.73190  0.27030  1.0000
  C   C19       1.0  0.79920  0.76810  0.72970  1.0000
  C   C20       1.0  0.70080  0.23190  0.22970  1.0000
  C   C21       1.0  0.79920  0.73190  0.22970  1.0000
  C   C22       1.0  0.70080  0.26810  0.72970  1.0000
  C   C23       1.0  0.20080  0.23190  0.27030  1.0000
  C   C24       1.0  0.29920  0.76810  0.77030  1.0000
  H   H17       1.0  0.15090  0.25460  0.80300  1.0000
  H   H18       1.0  0.34910  0.74540  0.30300  1.0000
  H   H19       1.0  0.84910  0.75460  0.69700  1.0000
  H   H20       1.0  0.65090  0.24540  0.19700  1.0000
  H   H21       1.0  0.84910  0.74540  0.19700  1.0000
  H   H22       1.0  0.65090  0.25460  0.69700  1.0000
  H   H23       1.0  0.15090  0.24540  0.30300  1.0000
  H   H24       1.0  0.34910  0.75460  0.80300  1.0000
  H   H25       1.0  0.24640  0.22680  0.77980  1.0000
  H   H26       1.0  0.25360  0.77320  0.27980  1.0000
  H   H27       1.0  0.75360  0.72680  0.72020  1.0000
  H   H28       1.0  0.74640  0.27320  0.22020  1.0000
  H   H29       1.0  0.75360  0.77320  0.22020  1.0000
  H   H30       1.0  0.74640  0.22680  0.72020  1.0000
  H   H31       1.0  0.24640  0.27320  0.27980  1.0000
  H   H32       1.0  0.25360  0.72680  0.77980  1.0000
  C   C25       1.0  0.14620  0.56370  0.82050  1.0000
  C   C26       1.0  0.35380  0.43630  0.32050  1.0000
  C   C27       1.0  0.85380  0.06370  0.67950  1.0000
  C   C28       1.0  0.64620  0.93630  0.17950  1.0000
  C   C29       1.0  0.85380  0.43630  0.17950  1.0000
  C   C30       1.0  0.64620  0.56370  0.67950  1.0000
  C   C31       1.0  0.14620  0.93630  0.32050  1.0000
  C   C32       1.0  0.35380  0.06370  0.82050  1.0000
  H   H33       1.0  0.11210  0.56510  0.77330  1.0000
  H   H34       1.0  0.38790  0.43490  0.27330  1.0000
  H   H35       1.0  0.88790  0.06510  0.72670  1.0000
  H   H36       1.0  0.61210  0.93490  0.22670  1.0000
  H   H37       1.0  0.88790  0.43490  0.22670  1.0000
  H   H38       1.0  0.61210  0.56510  0.72670  1.0000
  H   H39       1.0  0.11210  0.93490  0.27330  1.0000
  H   H40       1.0  0.38790  0.06510  0.77330  1.0000
  H   H41       1.0  0.17930  0.61550  0.82360  1.0000
  H   H42       1.0  0.32070  0.38450  0.32360  1.0000
  H   H43       1.0  0.82070  0.11550  0.67640  1.0000
  H   H44       1.0  0.67930  0.88450  0.17640  1.0000
  H   H45       1.0  0.82070  0.38450  0.17640  1.0000
  H   H46       1.0  0.67930  0.61550  0.67640  1.0000
  H   H47       1.0  0.17930  0.88450  0.32360  1.0000
  H   H48       1.0  0.32070  0.11550  0.82360  1.0000
  C   C33       1.0  0.08320  0.55890  0.88850  1.0000
  C   C34       1.0  0.41680  0.44110  0.38850  1.0000
  C   C35       1.0  0.91680  0.05890  0.61150  1.0000
  C   C36       1.0  0.58320  0.94110  0.11150  1.0000
  C   C37       1.0  0.91680  0.44110  0.11150  1.0000
  C   C38       1.0  0.58320  0.55890  0.61150  1.0000
  C   C39       1.0  0.08320  0.94110  0.38850  1.0000
  C   C40       1.0  0.41680  0.05890  0.88850  1.0000
  H   H49       1.0  0.05380  0.61230  0.89490  1.0000
  H   H50       1.0  0.44620  0.38770  0.39490  1.0000
  H   H51       1.0  0.94620  0.11230  0.60510  1.0000
  H   H52       1.0  0.55380  0.88770  0.10510  1.0000
  H   H53       1.0  0.94620  0.38770  0.10510  1.0000
  H   H54       1.0  0.55380  0.61230  0.60510  1.0000
  H   H55       1.0  0.05380  0.88770  0.39490  1.0000
  H   H56       1.0  0.44620  0.11230  0.89490  1.0000
  H   H57       1.0  0.03850  0.51690  0.87850  1.0000
  H   H58       1.0  0.46150  0.48310  0.37850  1.0000
  H   H59       1.0  0.96150  0.01690  0.62150  1.0000
  H   H60       1.0  0.53850  0.98310  0.12150  1.0000
  H   H61       1.0  0.96150  0.48310  0.12150  1.0000
  H   H62       1.0  0.53850  0.51690  0.62150  1.0000
  H   H63       1.0  0.03850  0.98310  0.37850  1.0000
  H   H64       1.0  0.46150  0.01690  0.87850  1.0000
  C   C41       1.0  0.13160  0.53720  0.96120  1.0000
  C   C42       1.0  0.36840  0.46280  0.46120  1.0000
  C   C43       1.0  0.86840  0.03720  0.53880  1.0000
  C   C44       1.0  0.63160  0.96280  0.03880  1.0000
  C   C45       1.0  0.86840  0.46280  0.03880  1.0000
  C   C46       1.0  0.63160  0.53720  0.53880  1.0000
  C   C47       1.0  0.13160  0.96280  0.46120  1.0000
  C   C48       1.0  0.36840  0.03720  0.96120  1.0000
  C   C49       1.0  0.44860  0.45370  0.81940  1.0000
  C   C50       1.0  0.05140  0.54630  0.31940  1.0000
  C   C51       1.0  0.55140  0.95370  0.68060  1.0000
  C   C52       1.0  0.94860  0.04630  0.18060  1.0000
  C   C53       1.0  0.55140  0.54630  0.18060  1.0000
  C   C54       1.0  0.94860  0.45370  0.68060  1.0000
  C   C55       1.0  0.44860  0.04630  0.31940  1.0000
  C   C56       1.0  0.05140  0.95370  0.81940  1.0000
  H   H65       1.0  0.46100  0.51110  0.80480  1.0000
  H   H66       1.0  0.03900  0.48890  0.30480  1.0000
  H   H67       1.0  0.53900  0.01110  0.69520  1.0000
  H   H68       1.0  0.96100  0.98890  0.19520  1.0000
  H   H69       1.0  0.53900  0.48890  0.19520  1.0000
  H   H70       1.0  0.96100  0.51110  0.69520  1.0000
  H   H71       1.0  0.46100  0.98890  0.30480  1.0000
  H   H72       1.0  0.03900  0.01110  0.80480  1.0000
  H   H73       1.0  0.47720  0.41730  0.78230  1.0000
  H   H74       1.0  0.02280  0.58270  0.28230  1.0000
  H   H75       1.0  0.52280  0.91730  0.71770  1.0000
  H   H76       1.0  0.97720  0.08270  0.21770  1.0000
  H   H77       1.0  0.52280  0.58270  0.21770  1.0000
  H   H78       1.0  0.97720  0.41730  0.71770  1.0000
  H   H79       1.0  0.47720  0.08270  0.28230  1.0000
  H   H80       1.0  0.02280  0.91730  0.78230  1.0000
  C   C57       1.0  0.48640  0.43740  0.89800  1.0000
  C   C58       1.0  0.01360  0.56260  0.39800  1.0000
  C   C59       1.0  0.51360  0.93740  0.60200  1.0000
  C   C60       1.0  0.98640  0.06260  0.10200  1.0000
  C   C61       1.0  0.51360  0.56260  0.10200  1.0000
  C   C62       1.0  0.98640  0.43740  0.60200  1.0000
  C   C63       1.0  0.48640  0.06260  0.39800  1.0000
  C   C64       1.0  0.01360  0.93740  0.89800  1.0000
  H   H81       1.0  0.45000  0.46500  0.93620  1.0000
  H   H82       1.0  0.05000  0.53500  0.43620  1.0000
  H   H83       1.0  0.55000  0.96500  0.56380  1.0000
  H   H84       1.0  0.95000  0.03500  0.06380  1.0000
  H   H85       1.0  0.55000  0.53500  0.06380  1.0000
  H   H86       1.0  0.95000  0.46500  0.56380  1.0000
  H   H87       1.0  0.45000  0.03500  0.43620  1.0000
  H   H88       1.0  0.05000  0.96500  0.93620  1.0000
  H   H89       1.0  0.48440  0.37780  0.90820  1.0000
  H   H90       1.0  0.01560  0.62220  0.40820  1.0000
  H   H91       1.0  0.51560  0.87780  0.59180  1.0000
  H   H92       1.0  0.98440  0.12220  0.09180  1.0000
  H   H93       1.0  0.51560  0.62220  0.09180  1.0000
  H   H94       1.0  0.98440  0.37780  0.59180  1.0000
  H   H95       1.0  0.48440  0.12220  0.40820  1.0000
  H   H96       1.0  0.01560  0.87780  0.90820  1.0000
  C   C65       1.0  0.57960  0.46710  0.90650  1.0000
  C   C66       1.0  0.92040  0.53290  0.40650  1.0000
  C   C67       1.0  0.42040  0.96710  0.59350  1.0000
  C   C68       1.0  0.07960  0.03290  0.09350  1.0000
  C   C69       1.0  0.42040  0.53290  0.09350  1.0000
  C   C70       1.0  0.07960  0.46710  0.59350  1.0000
  C   C71       1.0  0.57960  0.03290  0.40650  1.0000
  C   C72       1.0  0.92040  0.96710  0.90650  1.0000
  C   C73       1.0  0.17480  0.41470  0.79878  1.0000
  C   C74       1.0  0.32520  0.58530  0.29878  1.0000
  C   C75       1.0  0.82520  0.91470  0.70122  1.0000
  C   C76       1.0  0.67480  0.08530  0.20122  1.0000
  C   C77       1.0  0.82520  0.58530  0.20122  1.0000
  C   C78       1.0  0.67480  0.41470  0.70122  1.0000
  C   C79       1.0  0.17480  0.08530  0.29878  1.0000
  C   C80       1.0  0.32520  0.91470  0.79878  1.0000
  C   C81       1.0  0.29830  0.50850  0.82374  1.0000
  C   C82       1.0  0.20170  0.49150  0.32374  1.0000
  C   C83       1.0  0.70170  0.00850  0.67626  1.0000
  C   C84       1.0  0.79830  0.99150  0.17626  1.0000
  C   C85       1.0  0.70170  0.49150  0.17626  1.0000
  C   C86       1.0  0.79830  0.50850  0.67626  1.0000
  C   C87       1.0  0.29830  0.99150  0.32374  1.0000
  C   C88       1.0  0.20170  0.00850  0.82374  1.0000
  C   C89       1.0  0.32490  0.36020  0.79910  1.0000
  C   C90       1.0  0.17510  0.63980  0.29910  1.0000
  C   C91       1.0  0.67510  0.86020  0.70090  1.0000
  C   C92       1.0  0.82490  0.13980  0.20090  1.0000
  C   C93       1.0  0.67510  0.63980  0.20090  1.0000
  C   C94       1.0  0.82490  0.36020  0.70090  1.0000
  C   C95       1.0  0.32490  0.13980  0.29910  1.0000
  C   C96       1.0  0.17510  0.86020  0.79910  1.0000
