data_image0
_chemical_formula_structural       Zn4O14N2C2O2N2O4C6H2C12O2C2H2C4H2O4C2H2C8O2C4H2C2H2C2H2C2H2C2H2C2H2C2H2C2H2C8H2C2H2C2H2C2H2C2H2C2H2C2H2C2H2C2H2C2H2C2H2C2H2
_chemical_formula_sum              "Zn4 O28 N4 C84 H48"
_cell_length_a       13.0318
_cell_length_b       14.7999
_cell_length_c       15.1495
_cell_angle_alpha    85.839
_cell_angle_beta     67.979
_cell_angle_gamma    81.29

_space_group_name_H-M_alt    "P 1"
_space_group_IT_number       1

loop_
  _space_group_symop_operation_xyz
  'x, y, z'

loop_
  _atom_site_type_symbol
  _atom_site_label
  _atom_site_symmetry_multiplicity
  _atom_site_fract_x
  _atom_site_fract_y
  _atom_site_fract_z
  _atom_site_occupancy
  Zn  Zn1       1.0  0.16038  0.36907  0.28984  1.0000
  Zn  Zn2       1.0  0.83962  0.63093  0.71016  1.0000
  Zn  Zn3       1.0  0.59190  0.17833  0.20357  1.0000
  Zn  Zn4       1.0  0.40810  0.82167  0.79643  1.0000
  O   O1        1.0  0.23506  0.29466  0.17217  1.0000
  O   O2        1.0  0.76494  0.70534  0.82783  1.0000
  O   O3        1.0  0.21862  0.34973  0.97989  1.0000
  O   O4        1.0  0.78138  0.65027  0.02011  1.0000
  O   O5        1.0  0.51724  0.25153  0.31720  1.0000
  O   O6        1.0  0.48276  0.74847  0.68280  1.0000
  O   O7        1.0  0.53520  0.19584  0.51393  1.0000
  O   O8        1.0  0.46480  0.80416  0.48607  1.0000
  O   O9        1.0  0.36642  0.38599  0.10545  1.0000
  O   O10       1.0  0.63358  0.61401  0.89455  1.0000
  O   O11       1.0  0.49021  0.20135  0.13467  1.0000
  O   O12       1.0  0.50979  0.79865  0.86533  1.0000
  O   O13       1.0  0.27478  0.33980  0.34647  1.0000
  O   O14       1.0  0.72522  0.66020  0.65353  1.0000
  N   N1        1.0  0.65948  0.04974  0.22956  1.0000
  N   N2        1.0  0.34052  0.95026  0.77044  1.0000
  C   C1        1.0  0.32246  0.31820  0.10565  1.0000
  C   C2        1.0  0.67754  0.68180  0.89435  1.0000
  O   O15       1.0  0.74000  0.21839  0.13765  1.0000
  O   O16       1.0  0.26000  0.78161  0.86235  1.0000
  N   N3        1.0  0.11609  0.50426  0.26108  1.0000
  N   N4        1.0  0.88391  0.49574  0.73892  1.0000
  O   O17       1.0  0.39722  0.15162  0.38572  1.0000
  O   O18       1.0  0.60278  0.84838  0.61428  1.0000
  O   O19       1.0  0.00816  0.33773  0.33702  1.0000
  O   O20       1.0  0.99184  0.66227  0.66298  1.0000
  C   C3        1.0  0.43483  0.22343  0.38488  1.0000
  C   C4        1.0  0.56517  0.77657  0.61512  1.0000
  C   C5        1.0  0.36385  0.25891  0.01837  1.0000
  C   C6        1.0  0.63615  0.74109  0.98163  1.0000
  C   C7        1.0  0.13058  0.53730  0.17336  1.0000
  C   C8        1.0  0.86942  0.46270  0.82664  1.0000
  H   H1        1.0  0.17930  0.50290  0.12150  1.0000
  H   H2        1.0  0.82070  0.49710  0.87850  1.0000
  C   C9        1.0  0.64356  0.21661  0.47532  1.0000
  C   C10       1.0  0.35644  0.78339  0.52468  1.0000
  C   C11       1.0  0.11069  0.32905  0.02279  1.0000
  C   C12       1.0  0.88931  0.67095  0.97721  1.0000
  C   C13       1.0  0.45502  0.18942  0.99411  1.0000
  C   C14       1.0  0.54498  0.81058  0.00589  1.0000
  C   C15       1.0  0.39075  0.28265  0.47150  1.0000
  C   C16       1.0  0.60925  0.71735  0.52850  1.0000
  C   C17       1.0  0.30580  0.27713  0.95705  1.0000
  C   C18       1.0  0.69420  0.72287  0.04295  1.0000
  C   C19       1.0  0.44771  0.26808  0.53356  1.0000
  C   C20       1.0  0.55229  0.73192  0.46644  1.0000
  O   O21       1.0  0.05491  0.19776  0.38463  1.0000
  O   O22       1.0  0.94509  0.80224  0.61537  1.0000
  C   C21       1.0  0.63194  0.00823  0.31501  1.0000
  C   C22       1.0  0.36806  0.99177  0.68499  1.0000
  H   H3        1.0  0.56820  0.03300  0.36430  1.0000
  H   H4        1.0  0.43180  0.96700  0.63570  1.0000
  C   C23       1.0  0.29856  0.35087  0.49334  1.0000
  C   C24       1.0  0.70144  0.64913  0.50666  1.0000
  C   C25       1.0  0.08120  0.24236  0.03267  1.0000
  C   C26       1.0  0.91880  0.75764  0.96733  1.0000
  H   H5        1.0  0.13560  0.19190  0.01190  1.0000
  H   H6        1.0  0.86440  0.80810  0.98810  1.0000
  O   O23       1.0  0.61459  0.11381  0.02068  1.0000
  O   O24       1.0  0.38541  0.88619  0.97932  1.0000
  O   O25       1.0  0.13850  0.41604  0.46073  1.0000
  O   O26       1.0  0.86150  0.58396  0.53927  1.0000
  C   C27       1.0  0.07636  0.62024  0.15654  1.0000
  C   C28       1.0  0.92364  0.37976  0.84346  1.0000
  H   H7        1.0  0.08860  0.64050  0.09430  1.0000
  H   H8        1.0  0.91140  0.35950  0.90570  1.0000
  C   C29       1.0  0.52658  0.16541  0.05315  1.0000
  C   C30       1.0  0.47342  0.83459  0.94685  1.0000
  C   C31       1.0  0.88736  0.30580  0.10599  1.0000
  C   C32       1.0  0.11264  0.69420  0.89401  1.0000
  C   C33       1.0  0.23117  0.37078  0.43063  1.0000
  C   C34       1.0  0.76883  0.62922  0.56937  1.0000
  C   C35       1.0  0.76510  0.29616  0.14505  1.0000
  C   C36       1.0  0.23490  0.70384  0.85495  1.0000
  O   O27       1.0  0.69817  0.36396  0.18032  1.0000
  O   O28       1.0  0.30183  0.63604  0.81968  1.0000
  C   C37       1.0  0.00320  0.67382  0.23249  1.0000
  C   C38       1.0  0.99680  0.32618  0.76751  1.0000
  C   C39       1.0  0.83607  0.15831  0.43605  1.0000
  C   C40       1.0  0.16393  0.84169  0.56395  1.0000
  H   H9        1.0  0.89150  0.10970  0.43330  1.0000
  H   H10       1.0  0.10850  0.89030  0.56670  1.0000
  C   C41       1.0  0.04889  0.55727  0.33458  1.0000
  C   C42       1.0  0.95111  0.44273  0.66542  1.0000
  H   H11       1.0  0.03960  0.53610  0.39610  1.0000
  H   H12       1.0  0.96040  0.46390  0.60390  1.0000
  C   C43       1.0  0.85598  0.80795  0.27994  1.0000
  C   C44       1.0  0.14402  0.19205  0.72006  1.0000
  H   H13       1.0  0.83680  0.78740  0.34280  1.0000
  H   H14       1.0  0.16320  0.21260  0.65720  1.0000
  C   C45       1.0  0.99328  0.64137  0.32309  1.0000
  C   C46       1.0  0.00672  0.35863  0.67691  1.0000
  H   H15       1.0  0.94920  0.67630  0.37600  1.0000
  H   H16       1.0  0.05080  0.32370  0.62400  1.0000
  C   C47       1.0  0.96916  0.23136  0.07410  1.0000
  C   C48       1.0  0.03084  0.76864  0.92590  1.0000
  H   H17       1.0  0.94860  0.17300  0.08060  1.0000
  H   H18       1.0  0.05140  0.82700  0.91940  1.0000
  C   C49       1.0  0.03057  0.40373  0.05609  1.0000
  C   C50       1.0  0.96943  0.59627  0.94391  1.0000
  H   H19       1.0  0.05140  0.46190  0.05050  1.0000
  H   H20       1.0  0.94860  0.53810  0.94950  1.0000
  C   C51       1.0  0.78186  0.31577  0.40862  1.0000
  C   C52       1.0  0.21814  0.68423  0.59138  1.0000
  H   H21       1.0  0.80090  0.37350  0.38650  1.0000
  H   H22       1.0  0.19910  0.62650  0.61350  1.0000
  C   C53       1.0  0.67081  0.30251  0.44322  1.0000
  C   C54       1.0  0.32919  0.69749  0.55678  1.0000
  H   H23       1.0  0.61540  0.35080  0.44480  1.0000
  H   H24       1.0  0.38460  0.64920  0.55520  1.0000
  C   C55       1.0  0.86548  0.24473  0.40627  1.0000
  C   C56       1.0  0.13452  0.75527  0.59373  1.0000
  C   C57       1.0  0.79020  0.89166  0.26152  1.0000
  C   C58       1.0  0.20980  0.10834  0.73848  1.0000
  C   C59       1.0  0.98484  0.26037  0.37424  1.0000
  C   C60       1.0  0.01516  0.73963  0.62576  1.0000
  C   C61       1.0  0.72575  0.14332  0.46978  1.0000
  C   C62       1.0  0.27425  0.85668  0.53022  1.0000
  H   H25       1.0  0.70680  0.08490  0.48850  1.0000
  H   H26       1.0  0.29320  0.91510  0.51150  1.0000
  C   C63       1.0  0.69420  0.93006  0.33323  1.0000
  C   C64       1.0  0.30580  0.06994  0.66677  1.0000
  H   H27       1.0  0.67160  0.90310  0.39370  1.0000
  H   H28       1.0  0.32840  0.09690  0.60630  1.0000
  C   C65       1.0  0.91981  0.39188  0.09757  1.0000
  C   C66       1.0  0.08019  0.60812  0.90243  1.0000
  H   H29       1.0  0.86600  0.44230  0.12030  1.0000
  H   H30       1.0  0.13400  0.55770  0.87970  1.0000
  C   C67       1.0  0.75160  0.01222  0.15995  1.0000
  C   C68       1.0  0.24840  0.98778  0.84005  1.0000
  H   H31       1.0  0.77140  0.03960  0.09970  1.0000
  H   H32       1.0  0.22860  0.96040  0.90030  1.0000
  C   C69       1.0  0.33457  0.23022  0.87424  1.0000
  C   C70       1.0  0.66543  0.76978  0.12576  1.0000
  H   H33       1.0  0.29510  0.24500  0.83400  1.0000
  H   H34       1.0  0.70490  0.75500  0.16600  1.0000
  C   C71       1.0  0.48186  0.14078  0.91136  1.0000
  C   C72       1.0  0.51814  0.85922  0.08864  1.0000
  H   H35       1.0  0.54110  0.09350  0.89590  1.0000
  H   H36       1.0  0.45890  0.90650  0.10410  1.0000
  C   C73       1.0  0.41660  0.31800  0.61445  1.0000
  C   C74       1.0  0.58340  0.68200  0.38555  1.0000
  H   H37       1.0  0.45570  0.30600  0.65520  1.0000
  H   H38       1.0  0.54430  0.69400  0.34480  1.0000
  C   C75       1.0  0.94005  0.75931  0.21483  1.0000
  C   C76       1.0  0.05995  0.24069  0.78517  1.0000
  H   H39       1.0  0.96100  0.78120  0.15230  1.0000
  H   H40       1.0  0.03900  0.21880  0.84770  1.0000
  C   C77       1.0  0.26806  0.40246  0.57490  1.0000
  C   C78       1.0  0.73194  0.59754  0.42510  1.0000
  H   H41       1.0  0.20740  0.44840  0.58900  1.0000
  H   H42       1.0  0.79260  0.55160  0.41100  1.0000
  C   C79       1.0  0.42350  0.16050  0.85191  1.0000
  C   C80       1.0  0.57650  0.83950  0.14809  1.0000
  H   H43       1.0  0.44360  0.12720  0.79680  1.0000
  H   H44       1.0  0.55640  0.87280  0.20320  1.0000
  C   C81       1.0  0.81820  0.93529  0.17305  1.0000
  C   C82       1.0  0.18180  0.06471  0.82695  1.0000
  H   H45       1.0  0.88200  0.91250  0.12270  1.0000
  H   H46       1.0  0.11800  0.08750  0.87730  1.0000
  C   C83       1.0  0.32640  0.38640  0.63470  1.0000
  C   C84       1.0  0.67360  0.61360  0.36530  1.0000
  H   H47       1.0  0.30540  0.42140  0.68870  1.0000
  H   H48       1.0  0.69460  0.57860  0.31130  1.0000
