data_image0
_chemical_formula_structural       U6O26P6O14C2H4C8H4C2H4O4H6
_chemical_formula_sum              "U6 O44 P6 C12 H18"
_cell_length_a       10.4115
_cell_length_b       10.9064
_cell_length_c       15.7534
_cell_angle_alpha    105.895
_cell_angle_beta     95.653
_cell_angle_gamma    103.47

_space_group_name_H-M_alt    "P 1"
_space_group_IT_number       1

loop_
  _space_group_symop_operation_xyz
  'x, y, z'

loop_
  _atom_site_type_symbol
  _atom_site_label
  _atom_site_symmetry_multiplicity
  _atom_site_fract_x
  _atom_site_fract_y
  _atom_site_fract_z
  _atom_site_occupancy
  U   U1        1.0  0.54141  0.24582  0.97444  1.0000
  U   U2        1.0  0.45859  0.75418  0.02556  1.0000
  U   U3        1.0  0.90489  0.31791  0.34333  1.0000
  U   U4        1.0  0.09511  0.68209  0.65667  1.0000
  U   U5        1.0  0.83467  0.84839  0.30741  1.0000
  U   U6        1.0  0.16533  0.15161  0.69259  1.0000
  O   O1        1.0  0.02880  0.28080  0.27920  1.0000
  O   O2        1.0  0.97120  0.71920  0.72080  1.0000
  O   O3        1.0  0.77730  0.35210  0.40610  1.0000
  O   O4        1.0  0.22270  0.64790  0.59390  1.0000
  O   O5        1.0  0.61870  0.29200  0.88790  1.0000
  O   O6        1.0  0.38130  0.70800  0.11210  1.0000
  O   O7        1.0  0.66130  0.82090  0.30870  1.0000
  O   O8        1.0  0.33870  0.17910  0.69130  1.0000
  O   O9        1.0  0.85380  0.97200  0.46810  1.0000
  O   O10       1.0  0.14620  0.02800  0.53190  1.0000
  O   O11       1.0  0.46920  0.20510  0.06460  1.0000
  O   O12       1.0  0.53080  0.79490  0.93540  1.0000
  O   O13       1.0  0.66910  0.07590  0.95550  1.0000
  O   O14       1.0  0.33090  0.92410  0.04450  1.0000
  O   O15       1.0  0.82830  0.94700  0.19820  1.0000
  O   O16       1.0  0.17170  0.05300  0.80180  1.0000
  O   O17       1.0  0.00750  0.87960  0.30630  1.0000
  O   O18       1.0  0.99250  0.12040  0.69370  1.0000
  O   O19       1.0  0.13290  0.29800  0.61340  1.0000
  O   O20       1.0  0.86710  0.70200  0.38660  1.0000
  O   O21       1.0  0.63320  0.45590  0.07260  1.0000
  O   O22       1.0  0.36680  0.54410  0.92740  1.0000
  O   O23       1.0  0.74750  0.15400  0.23240  1.0000
  O   O24       1.0  0.25250  0.84600  0.76760  1.0000
  O   O25       1.0  0.79100  0.65710  0.18480  1.0000
  O   O26       1.0  0.20900  0.34290  0.81520  1.0000
  P   P1        1.0  0.71735  0.59589  0.08856  1.0000
  P   P2        1.0  0.28265  0.40411  0.91144  1.0000
  P   P3        1.0  0.74453  0.02448  0.16183  1.0000
  P   P4        1.0  0.25547  0.97552  0.83817  1.0000
  P   P5        1.0  0.02225  0.33306  0.56283  1.0000
  P   P6        1.0  0.97775  0.66694  0.43717  1.0000
  O   O27       1.0  0.76150  0.25850  0.06300  1.0000
  O   O28       1.0  0.23850  0.74150  0.93700  1.0000
  O   O29       1.0  0.86790  0.09910  0.38190  1.0000
  O   O30       1.0  0.13210  0.90090  0.61810  1.0000
  O   O31       1.0  0.63500  0.67880  0.05900  1.0000
  O   O32       1.0  0.36500  0.32120  0.94100  1.0000
  O   O33       1.0  0.60140  0.94630  0.12320  1.0000
  O   O34       1.0  0.39860  0.05370  0.87680  1.0000
  O   O35       1.0  0.99080  0.45700  0.61970  1.0000
  O   O36       1.0  0.00920  0.54300  0.38030  1.0000
  O   O37       1.0  0.05310  0.34430  0.47180  1.0000
  O   O38       1.0  0.94690  0.65570  0.52820  1.0000
  O   O39       1.0  0.81280  0.41240  0.23230  1.0000
  O   O40       1.0  0.18720  0.58760  0.76770  1.0000
  C   C1        1.0  0.82630  0.06650  0.07310  1.0000
  C   C2        1.0  0.17370  0.93350  0.92690  1.0000
  H   H1        1.0  0.91700  0.12160  0.09820  1.0000
  H   H2        1.0  0.08300  0.87840  0.90180  1.0000
  H   H3        1.0  0.83170  0.98610  0.02970  1.0000
  H   H4        1.0  0.16830  0.01390  0.97030  1.0000
  C   C3        1.0  0.75310  0.13730  0.02780  1.0000
  C   C4        1.0  0.24690  0.86270  0.97220  1.0000
  C   C5        1.0  0.86370  0.08520  0.45960  1.0000
  C   C6        1.0  0.13630  0.91480  0.54040  1.0000
  C   C7        1.0  0.90260  0.71560  0.99940  1.0000
  C   C8        1.0  0.09740  0.28440  0.00060  1.0000
  C   C9        1.0  0.84460  0.58550  0.01850  1.0000
  C   C10       1.0  0.15540  0.41450  0.98150  1.0000
  H   H5        1.0  0.91670  0.56100  0.04780  1.0000
  H   H6        1.0  0.08330  0.43900  0.95220  1.0000
  H   H7        1.0  0.80610  0.51630  0.96220  1.0000
  H   H8        1.0  0.19390  0.48370  0.03780  1.0000
  C   C11       1.0  0.86820  0.20230  0.53820  1.0000
  C   C12       1.0  0.13180  0.79770  0.46180  1.0000
  H   H9        1.0  0.85780  0.17290  0.59060  1.0000
  H   H10       1.0  0.14220  0.82710  0.40940  1.0000
  H   H11       1.0  0.79330  0.23730  0.52600  1.0000
  H   H12       1.0  0.20670  0.76270  0.47400  1.0000
  O   O41       1.0  0.85190  0.74650  0.93980  1.0000
  O   O42       1.0  0.14810  0.25350  0.06020  1.0000
  O   O43       1.0  0.00870  0.79950  0.05700  1.0000
  O   O44       1.0  0.99130  0.20050  0.94300  1.0000
  H   H13       1.0  0.03360  0.76440  0.09310  1.0000
  H   H14       1.0  0.96640  0.23560  0.90690  1.0000
  H   H15       1.0  0.78400  0.36200  0.18300  1.0000
  H   H16       1.0  0.21600  0.63800  0.81700  1.0000
  H   H17       1.0  0.81700  0.49100  0.24200  1.0000
  H   H18       1.0  0.18300  0.50900  0.75800  1.0000
