data_image0
_chemical_formula_structural       Zn2O24C6H2C2H2C2H2C8H2C2H2C2H2C8H2C2H2C2H2C8H2C2H2C2H2C4H4C2H4C2H4C2H4C2H4C4H4C4H4C4H4C2
_chemical_formula_sum              "Zn2 O24 C72 H56"
_cell_length_a       13.1608
_cell_length_b       13.8629
_cell_length_c       14.6127
_cell_angle_alpha    114.31
_cell_angle_beta     112.023
_cell_angle_gamma    96.049

_space_group_name_H-M_alt    "P 1"
_space_group_IT_number       1

loop_
  _space_group_symop_operation_xyz
  'x, y, z'

loop_
  _atom_site_type_symbol
  _atom_site_label
  _atom_site_symmetry_multiplicity
  _atom_site_fract_x
  _atom_site_fract_y
  _atom_site_fract_z
  _atom_site_occupancy
  Zn  Zn1       1.0  0.77209  0.87617  0.72324  1.0000
  Zn  Zn2       1.0  0.22791  0.12383  0.27676  1.0000
  O   O1        1.0  0.87573  0.25322  0.75870  1.0000
  O   O2        1.0  0.12427  0.74678  0.24130  1.0000
  O   O3        1.0  0.87281  0.03337  0.81986  1.0000
  O   O4        1.0  0.12719  0.96663  0.18014  1.0000
  O   O5        1.0  0.73650  0.05700  0.69390  1.0000
  O   O6        1.0  0.26350  0.94300  0.30610  1.0000
  O   O7        1.0  0.81945  0.53922  0.70307  1.0000
  O   O8        1.0  0.18055  0.46078  0.29693  1.0000
  O   O9        1.0  0.84540  0.83216  0.83930  1.0000
  O   O10       1.0  0.15460  0.16784  0.16070  1.0000
  O   O11       1.0  0.88140  0.72329  0.91548  1.0000
  O   O12       1.0  0.11860  0.27671  0.08452  1.0000
  O   O13       1.0  0.62216  0.21488  0.38080  1.0000
  O   O14       1.0  0.37784  0.78512  0.61920  1.0000
  O   O15       1.0  0.39228  0.17285  0.31916  1.0000
  O   O16       1.0  0.60772  0.82715  0.68084  1.0000
  O   O17       1.0  0.34527  0.05470  0.14200  1.0000
  O   O18       1.0  0.65473  0.94530  0.85800  1.0000
  O   O19       1.0  0.01099  0.25894  0.51339  1.0000
  O   O20       1.0  0.98901  0.74106  0.48661  1.0000
  O   O21       1.0  0.22868  0.20228  0.42468  1.0000
  O   O22       1.0  0.77132  0.79772  0.57532  1.0000
  O   O23       1.0  0.04003  0.14830  0.32005  1.0000
  O   O24       1.0  0.95997  0.85170  0.67995  1.0000
  C   C1        1.0  0.96390  0.34140  0.78640  1.0000
  C   C2        1.0  0.03610  0.65860  0.21360  1.0000
  C   C3        1.0  0.05190  0.31750  0.75720  1.0000
  C   C4        1.0  0.94810  0.68250  0.24280  1.0000
  C   C5        1.0  0.13880  0.40720  0.78660  1.0000
  C   C6        1.0  0.86120  0.59280  0.21340  1.0000
  H   H1        1.0  0.20120  0.39400  0.77060  1.0000
  H   H2        1.0  0.79880  0.60600  0.22940  1.0000
  C   C7        1.0  0.13650  0.51500  0.83860  1.0000
  C   C8        1.0  0.86350  0.48500  0.16140  1.0000
  H   H3        1.0  0.19680  0.57490  0.85770  1.0000
  H   H4        1.0  0.80320  0.42510  0.14230  1.0000
  C   C9        1.0  0.04680  0.53600  0.86300  1.0000
  C   C10       1.0  0.95320  0.46400  0.13700  1.0000
  H   H5        1.0  0.04470  0.61030  0.89670  1.0000
  H   H6        1.0  0.95530  0.38970  0.10330  1.0000
  C   C11       1.0  0.95950  0.44940  0.83870  1.0000
  C   C12       1.0  0.04050  0.55060  0.16130  1.0000
  C   C13       1.0  0.72730  0.46620  0.68810  1.0000
  C   C14       1.0  0.27270  0.53380  0.31190  1.0000
  C   C15       1.0  0.74600  0.43560  0.77180  1.0000
  C   C16       1.0  0.25400  0.56440  0.22820  1.0000
  C   C17       1.0  0.65210  0.37070  0.76420  1.0000
  C   C18       1.0  0.34790  0.62930  0.23580  1.0000
  H   H7        1.0  0.66260  0.35080  0.82130  1.0000
  H   H8        1.0  0.33740  0.64920  0.17870  1.0000
  C   C19       1.0  0.54220  0.33420  0.67330  1.0000
  C   C20       1.0  0.45780  0.66580  0.32670  1.0000
  H   H9        1.0  0.47730  0.29500  0.67180  1.0000
  H   H10       1.0  0.52270  0.70500  0.32820  1.0000
  C   C21       1.0  0.52890  0.35560  0.58590  1.0000
  C   C22       1.0  0.47110  0.64440  0.41410  1.0000
  H   H11       1.0  0.45520  0.32650  0.52210  1.0000
  H   H12       1.0  0.54480  0.67350  0.47790  1.0000
  C   C23       1.0  0.62120  0.41910  0.58900  1.0000
  C   C24       1.0  0.37880  0.58090  0.41100  1.0000
  C   C25       1.0  0.70180  0.30210  0.39590  1.0000
  C   C26       1.0  0.29820  0.69790  0.60410  1.0000
  C   C27       1.0  0.69280  0.40890  0.44500  1.0000
  C   C28       1.0  0.30720  0.59110  0.55500  1.0000
  C   C29       1.0  0.76650  0.49400  0.45200  1.0000
  C   C30       1.0  0.23350  0.50600  0.54800  1.0000
  H   H13       1.0  0.76020  0.56690  0.48270  1.0000
  H   H14       1.0  0.23980  0.43310  0.51730  1.0000
  C   C31       1.0  0.84880  0.47490  0.41520  1.0000
  C   C32       1.0  0.15120  0.52510  0.58480  1.0000
  H   H15       1.0  0.89780  0.53400  0.41990  1.0000
  H   H16       1.0  0.10220  0.46600  0.58010  1.0000
  C   C33       1.0  0.85910  0.36930  0.37170  1.0000
  C   C34       1.0  0.14090  0.63070  0.62830  1.0000
  H   H17       1.0  0.91700  0.35700  0.34830  1.0000
  H   H18       1.0  0.08300  0.64300  0.65170  1.0000
  C   C35       1.0  0.78670  0.28050  0.36130  1.0000
  C   C36       1.0  0.21330  0.71950  0.63870  1.0000
  C   C37       1.0  0.93280  0.16870  0.49300  1.0000
  C   C38       1.0  0.06720  0.83130  0.50700  1.0000
  C   C39       1.0  0.82950  0.11740  0.39130  1.0000
  C   C40       1.0  0.17050  0.88260  0.60870  1.0000
  C   C41       1.0  0.75570  0.01940  0.36400  1.0000
  C   C42       1.0  0.24430  0.98060  0.63600  1.0000
  H   H19       1.0  0.68750  0.98110  0.29360  1.0000
  H   H20       1.0  0.31250  0.01890  0.70640  1.0000
  C   C43       1.0  0.77960  0.97650  0.43760  1.0000
  C   C44       1.0  0.22040  0.02350  0.56240  1.0000
  H   H21       1.0  0.73030  0.90770  0.41630  1.0000
  H   H22       1.0  0.26970  0.09230  0.58370  1.0000
  C   C45       1.0  0.87600  0.03500  0.54250  1.0000
  C   C46       1.0  0.12400  0.96500  0.45750  1.0000
  H   H23       1.0  0.88970  0.00750  0.59450  1.0000
  H   H24       1.0  0.11030  0.99250  0.40550  1.0000
  C   C47       1.0  0.95340  0.13310  0.57370  1.0000
  C   C48       1.0  0.04660  0.86690  0.42630  1.0000
  C   C49       1.0  0.86410  0.47450  0.87020  1.0000
  C   C50       1.0  0.13590  0.52550  0.12980  1.0000
  H   H25       1.0  0.85950  0.43930  0.91600  1.0000
  H   H26       1.0  0.14050  0.56070  0.08400  1.0000
  H   H27       1.0  0.88540  0.55590  0.91870  1.0000
  H   H28       1.0  0.11460  0.44410  0.08130  1.0000
  C   C51       1.0  0.60300  0.43110  0.48610  1.0000
  C   C52       1.0  0.39700  0.56890  0.51390  1.0000
  H   H29       1.0  0.60090  0.50770  0.50380  1.0000
  H   H30       1.0  0.39910  0.49230  0.49620  1.0000
  H   H31       1.0  0.52660  0.37950  0.42340  1.0000
  H   H32       1.0  0.47340  0.62050  0.57660  1.0000
  C   C53       1.0  0.80140  0.16570  0.31260  1.0000
  C   C54       1.0  0.19860  0.83430  0.68740  1.0000
  H   H33       1.0  0.72940  0.11410  0.24290  1.0000
  H   H34       1.0  0.27060  0.88590  0.75710  1.0000
  H   H35       1.0  0.86360  0.16990  0.29060  1.0000
  H   H36       1.0  0.13640  0.83010  0.70940  1.0000
  C   C55       1.0  0.05130  0.19880  0.69320  1.0000
  C   C56       1.0  0.94870  0.80120  0.30680  1.0000
  H   H37       1.0  0.12520  0.20050  0.68990  1.0000
  H   H38       1.0  0.87480  0.79950  0.31010  1.0000
  H   H39       1.0  0.04610  0.15990  0.73570  1.0000
  H   H40       1.0  0.95390  0.84010  0.26430  1.0000
  C   C57       1.0  0.90360  0.21310  0.83840  1.0000
  C   C58       1.0  0.09640  0.78690  0.16160  1.0000
  H   H41       1.0  0.88800  0.25850  0.90150  1.0000
  H   H42       1.0  0.11200  0.74150  0.09850  1.0000
  H   H43       1.0  0.98640  0.21880  0.87010  1.0000
  H   H44       1.0  0.01360  0.78120  0.12990  1.0000
  C   C59       1.0  0.83100  0.09310  0.77840  1.0000
  C   C60       1.0  0.16900  0.90690  0.22160  1.0000
  C   C61       1.0  0.80730  0.64370  0.71370  1.0000
  C   C62       1.0  0.19270  0.35630  0.28630  1.0000
  H   H45       1.0  0.72500  0.63290  0.66850  1.0000
  H   H46       1.0  0.27500  0.36710  0.33150  1.0000
  H   H47       1.0  0.85050  0.66770  0.68010  1.0000
  H   H48       1.0  0.14950  0.33230  0.31990  1.0000
  C   C63       1.0  0.84820  0.73700  0.83350  1.0000
  C   C64       1.0  0.15180  0.26300  0.16650  1.0000
  C   C65       1.0  0.54120  0.14010  0.26500  1.0000
  C   C66       1.0  0.45880  0.85990  0.73500  1.0000
  H   H49       1.0  0.55620  0.06740  0.24230  1.0000
  H   H50       1.0  0.44380  0.93260  0.75770  1.0000
  H   H51       1.0  0.55410  0.16940  0.21760  1.0000
  H   H52       1.0  0.44590  0.83060  0.78240  1.0000
  C   C67       1.0  0.41670  0.12160  0.24040  1.0000
  C   C68       1.0  0.58330  0.87840  0.75960  1.0000
  C   C69       1.0  0.12010  0.24490  0.52350  1.0000
  C   C70       1.0  0.87990  0.75510  0.47650  1.0000
  H   H53       1.0  0.13830  0.19650  0.55770  1.0000
  H   H54       1.0  0.86170  0.80350  0.44230  1.0000
  H   H55       1.0  0.18000  0.31830  0.57590  1.0000
  H   H56       1.0  0.82000  0.68170  0.42410  1.0000
  C   C71       1.0  0.12630  0.19470  0.41180  1.0000
  C   C72       1.0  0.87370  0.80530  0.58820  1.0000
