data_image0
_chemical_formula_structural       Zn2O24C6H2C2H2C2H2C8H2C2H2C2H2C8H2C2H2C2H2C8H2C2H2C2H2C4H4C2H4C2H4C2H4C2H4C4H4C4H4C4H4C2
_chemical_formula_sum              "Zn2 O24 C72 H56"
_cell_length_a       13.1978
_cell_length_b       13.9035
_cell_length_c       14.667
_cell_angle_alpha    114.607
_cell_angle_beta     112.061
_cell_angle_gamma    95.173

_space_group_name_H-M_alt    "P 1"
_space_group_IT_number       1

loop_
  _space_group_symop_operation_xyz
  'x, y, z'

loop_
  _atom_site_type_symbol
  _atom_site_label
  _atom_site_symmetry_multiplicity
  _atom_site_fract_x
  _atom_site_fract_y
  _atom_site_fract_z
  _atom_site_occupancy
  Zn  Zn1       1.0  0.77407  0.87936  0.72675  1.0000
  Zn  Zn2       1.0  0.22593  0.12064  0.27325  1.0000
  O   O1        1.0  0.88140  0.25606  0.76284  1.0000
  O   O2        1.0  0.11860  0.74394  0.23716  1.0000
  O   O3        1.0  0.87531  0.03516  0.82330  1.0000
  O   O4        1.0  0.12469  0.96484  0.17670  1.0000
  O   O5        1.0  0.74690  0.05980  0.69440  1.0000
  O   O6        1.0  0.25310  0.94020  0.30560  1.0000
  O   O7        1.0  0.82636  0.54323  0.70590  1.0000
  O   O8        1.0  0.17364  0.45677  0.29410  1.0000
  O   O9        1.0  0.84851  0.83497  0.84234  1.0000
  O   O10       1.0  0.15149  0.16503  0.15766  1.0000
  O   O11       1.0  0.88390  0.72550  0.91720  1.0000
  O   O12       1.0  0.11610  0.27450  0.08280  1.0000
  O   O13       1.0  0.62116  0.22207  0.38278  1.0000
  O   O14       1.0  0.37884  0.77793  0.61722  1.0000
  O   O15       1.0  0.38997  0.17757  0.32007  1.0000
  O   O16       1.0  0.61003  0.82243  0.67993  1.0000
  O   O17       1.0  0.34860  0.05360  0.14690  1.0000
  O   O18       1.0  0.65140  0.94640  0.85310  1.0000
  O   O19       1.0  0.00905  0.25804  0.51112  1.0000
  O   O20       1.0  0.99095  0.74196  0.48888  1.0000
  O   O21       1.0  0.22380  0.19941  0.41928  1.0000
  O   O22       1.0  0.77620  0.80059  0.58072  1.0000
  O   O23       1.0  0.03650  0.14550  0.31690  1.0000
  O   O24       1.0  0.96350  0.85450  0.68310  1.0000
  C   C1        1.0  0.96840  0.34140  0.78750  1.0000
  C   C2        1.0  0.03160  0.65860  0.21250  1.0000
  C   C3        1.0  0.05380  0.31500  0.75540  1.0000
  C   C4        1.0  0.94620  0.68500  0.24460  1.0000
  C   C5        1.0  0.14060  0.40230  0.78280  1.0000
  C   C6        1.0  0.85940  0.59770  0.21720  1.0000
  H   H1        1.0  0.20160  0.38700  0.76500  1.0000
  H   H2        1.0  0.79840  0.61300  0.23500  1.0000
  C   C7        1.0  0.13940  0.51060  0.83540  1.0000
  C   C8        1.0  0.86060  0.48940  0.16460  1.0000
  H   H3        1.0  0.19940  0.56900  0.85360  1.0000
  H   H4        1.0  0.80060  0.43100  0.14640  1.0000
  C   C9        1.0  0.05130  0.53400  0.86140  1.0000
  C   C10       1.0  0.94870  0.46600  0.13860  1.0000
  H   H5        1.0  0.04970  0.60850  0.89510  1.0000
  H   H6        1.0  0.95030  0.39150  0.10490  1.0000
  C   C11       1.0  0.96460  0.44990  0.83910  1.0000
  C   C12       1.0  0.03540  0.55010  0.16090  1.0000
  C   C13       1.0  0.73450  0.47420  0.69350  1.0000
  C   C14       1.0  0.26550  0.52580  0.30650  1.0000
  C   C15       1.0  0.75420  0.44510  0.77830  1.0000
  C   C16       1.0  0.24580  0.55490  0.22170  1.0000
  C   C17       1.0  0.66010  0.38670  0.77490  1.0000
  C   C18       1.0  0.33990  0.61330  0.22510  1.0000
  H   H7        1.0  0.67100  0.36820  0.83260  1.0000
  H   H8        1.0  0.32900  0.63180  0.16740  1.0000
  C   C19       1.0  0.55150  0.35530  0.68920  1.0000
  C   C20       1.0  0.44850  0.64470  0.31080  1.0000
  H   H9        1.0  0.48730  0.32220  0.69200  1.0000
  H   H10       1.0  0.51270  0.67780  0.30800  1.0000
  C   C21       1.0  0.53660  0.37260  0.59840  1.0000
  C   C22       1.0  0.46340  0.62740  0.40160  1.0000
  H   H11       1.0  0.46270  0.34500  0.53620  1.0000
  H   H12       1.0  0.53730  0.65500  0.46380  1.0000
  C   C23       1.0  0.62840  0.42990  0.59730  1.0000
  C   C24       1.0  0.37160  0.57010  0.40270  1.0000
  C   C25       1.0  0.70220  0.30680  0.39800  1.0000
  C   C26       1.0  0.29780  0.69320  0.60200  1.0000
  C   C27       1.0  0.69570  0.41440  0.44940  1.0000
  C   C28       1.0  0.30430  0.58560  0.55060  1.0000
  C   C29       1.0  0.76950  0.49770  0.45610  1.0000
  C   C30       1.0  0.23050  0.50230  0.54390  1.0000
  H   H13       1.0  0.76440  0.57110  0.48780  1.0000
  H   H14       1.0  0.23560  0.42890  0.51220  1.0000
  C   C31       1.0  0.85020  0.47640  0.41780  1.0000
  C   C32       1.0  0.14980  0.52360  0.58220  1.0000
  H   H15       1.0  0.89900  0.53410  0.42180  1.0000
  H   H16       1.0  0.10100  0.46590  0.57820  1.0000
  C   C33       1.0  0.85920  0.36980  0.37330  1.0000
  C   C34       1.0  0.14080  0.63020  0.62670  1.0000
  H   H17       1.0  0.91660  0.35560  0.34960  1.0000
  H   H18       1.0  0.08340  0.64440  0.65040  1.0000
  C   C35       1.0  0.78570  0.28310  0.36280  1.0000
  C   C36       1.0  0.21430  0.71690  0.63720  1.0000
  C   C37       1.0  0.93180  0.16890  0.49180  1.0000
  C   C38       1.0  0.06820  0.83110  0.50820  1.0000
  C   C39       1.0  0.82890  0.11980  0.39180  1.0000
  C   C40       1.0  0.17110  0.88020  0.60820  1.0000
  C   C41       1.0  0.75630  0.02250  0.36480  1.0000
  C   C42       1.0  0.24370  0.97750  0.63520  1.0000
  H   H19       1.0  0.68870  0.98500  0.29500  1.0000
  H   H20       1.0  0.31130  0.01500  0.70500  1.0000
  C   C43       1.0  0.78080  0.97900  0.43790  1.0000
  C   C44       1.0  0.21920  0.02100  0.56210  1.0000
  H   H21       1.0  0.73200  0.91110  0.41710  1.0000
  H   H22       1.0  0.26800  0.08890  0.58290  1.0000
  C   C45       1.0  0.87720  0.03580  0.54100  1.0000
  C   C46       1.0  0.12280  0.96420  0.45900  1.0000
  H   H23       1.0  0.89190  0.00800  0.59250  1.0000
  H   H24       1.0  0.10810  0.99200  0.40750  1.0000
  C   C47       1.0  0.95360  0.13300  0.57150  1.0000
  C   C48       1.0  0.04640  0.86700  0.42850  1.0000
  C   C49       1.0  0.87180  0.47850  0.87320  1.0000
  C   C50       1.0  0.12820  0.52150  0.12680  1.0000
  H   H25       1.0  0.86690  0.44290  0.91810  1.0000
  H   H26       1.0  0.13310  0.55710  0.08190  1.0000
  H   H27       1.0  0.89520  0.55950  0.92290  1.0000
  H   H28       1.0  0.10480  0.44050  0.07710  1.0000
  C   C51       1.0  0.60840  0.43960  0.49290  1.0000
  C   C52       1.0  0.39160  0.56040  0.50710  1.0000
  H   H29       1.0  0.53220  0.38880  0.43180  1.0000
  H   H30       1.0  0.46780  0.61120  0.56820  1.0000
  H   H31       1.0  0.60610  0.51580  0.50950  1.0000
  H   H32       1.0  0.39390  0.48420  0.49050  1.0000
  C   C53       1.0  0.80000  0.16760  0.31320  1.0000
  C   C54       1.0  0.20000  0.83240  0.68680  1.0000
  H   H33       1.0  0.72810  0.11710  0.24460  1.0000
  H   H34       1.0  0.27190  0.88290  0.75540  1.0000
  H   H35       1.0  0.86110  0.17040  0.29010  1.0000
  H   H36       1.0  0.13890  0.82960  0.70990  1.0000
  C   C55       1.0  0.05180  0.19650  0.69000  1.0000
  C   C56       1.0  0.94820  0.80350  0.31000  1.0000
  H   H37       1.0  0.04670  0.15750  0.73200  1.0000
  H   H38       1.0  0.95330  0.84250  0.26800  1.0000
  H   H39       1.0  0.12470  0.19650  0.68540  1.0000
  H   H40       1.0  0.87530  0.80350  0.31460  1.0000
  C   C57       1.0  0.91090  0.21340  0.83960  1.0000
  C   C58       1.0  0.08910  0.78660  0.16040  1.0000
  H   H41       1.0  0.89820  0.25880  0.90490  1.0000
  H   H42       1.0  0.10180  0.74120  0.09510  1.0000
  H   H43       1.0  0.99270  0.21660  0.86770  1.0000
  H   H44       1.0  0.00730  0.78340  0.13230  1.0000
  C   C59       1.0  0.83760  0.09440  0.77980  1.0000
  C   C60       1.0  0.16240  0.90560  0.22020  1.0000
  C   C61       1.0  0.81600  0.64810  0.71700  1.0000
  C   C62       1.0  0.18400  0.35190  0.28300  1.0000
  H   H45       1.0  0.73520  0.63870  0.66960  1.0000
  H   H46       1.0  0.26480  0.36130  0.33040  1.0000
  H   H47       1.0  0.86240  0.67200  0.68650  1.0000
  H   H48       1.0  0.13760  0.32800  0.31350  1.0000
  C   C63       1.0  0.85220  0.74020  0.83610  1.0000
  C   C64       1.0  0.14780  0.25980  0.16390  1.0000
  C   C65       1.0  0.54140  0.14800  0.26810  1.0000
  C   C66       1.0  0.45860  0.85200  0.73190  1.0000
  H   H49       1.0  0.55970  0.07670  0.24480  1.0000
  H   H50       1.0  0.44030  0.92330  0.75520  1.0000
  H   H51       1.0  0.55170  0.17860  0.22110  1.0000
  H   H52       1.0  0.44830  0.82140  0.77890  1.0000
  C   C67       1.0  0.41740  0.12560  0.24380  1.0000
  C   C68       1.0  0.58260  0.87440  0.75620  1.0000
  C   C69       1.0  0.11690  0.24270  0.51930  1.0000
  C   C70       1.0  0.88310  0.75730  0.48070  1.0000
  H   H53       1.0  0.13610  0.19480  0.55390  1.0000
  H   H54       1.0  0.86390  0.80520  0.44610  1.0000
  H   H55       1.0  0.17600  0.31540  0.57050  1.0000
  H   H56       1.0  0.82400  0.68460  0.42950  1.0000
  C   C71       1.0  0.12200  0.19130  0.40730  1.0000
  C   C72       1.0  0.87800  0.80870  0.59270  1.0000
