data_image0
_chemical_formula_structural       Na3O38V10N6C8H28
_chemical_formula_sum              "Na3 O38 V10 N6 C8 H28"
_cell_length_a       9.8526
_cell_length_b       12.2227
_cell_length_c       13.0852
_cell_angle_alpha    85.995
_cell_angle_beta     80.11
_cell_angle_gamma    70.954

_space_group_name_H-M_alt    "P 1"
_space_group_IT_number       1

loop_
  _space_group_symop_operation_xyz
  'x, y, z'

loop_
  _atom_site_type_symbol
  _atom_site_label
  _atom_site_symmetry_multiplicity
  _atom_site_fract_x
  _atom_site_fract_y
  _atom_site_fract_z
  _atom_site_occupancy
  Na  Na1       1.0  0.50000  0.50000  0.50000  1.0000
  Na  Na2       1.0  0.08381  0.52664  0.60264  1.0000
  Na  Na3       1.0  0.91619  0.47336  0.39736  1.0000
  O   O1        1.0  0.41051  0.34368  0.40328  1.0000
  O   O2        1.0  0.58949  0.65632  0.59672  1.0000
  O   O3        1.0  0.21859  0.31941  0.61038  1.0000
  O   O4        1.0  0.78141  0.68059  0.38962  1.0000
  O   O5        1.0  0.31568  0.15216  0.45520  1.0000
  O   O6        1.0  0.68432  0.84784  0.54480  1.0000
  O   O7        1.0  0.50165  0.17157  0.55011  1.0000
  O   O8        1.0  0.49835  0.82843  0.44989  1.0000
  O   O9        1.0  0.44490  0.99107  0.88489  1.0000
  O   O10       1.0  0.55510  0.00893  0.11511  1.0000
  O   O11       1.0  0.03813  0.94329  0.67542  1.0000
  O   O12       1.0  0.96187  0.05671  0.32458  1.0000
  O   O13       1.0  0.14369  0.12367  0.63316  1.0000
  O   O14       1.0  0.85631  0.87633  0.36684  1.0000
  O   O15       1.0  0.21765  0.96740  0.49013  1.0000
  O   O16       1.0  0.78235  0.03260  0.50987  1.0000
  O   O17       1.0  0.24732  0.96667  0.77475  1.0000
  O   O18       1.0  0.75268  0.03333  0.22525  1.0000
  O   O19       1.0  0.34445  0.14706  0.73697  1.0000
  O   O20       1.0  0.65555  0.85294  0.26303  1.0000
  O   O21       1.0  0.47651  0.16871  0.26766  1.0000
  O   O22       1.0  0.52349  0.83129  0.73234  1.0000
  O   O23       1.0  0.67940  0.19088  0.37272  1.0000
  O   O24       1.0  0.32060  0.80912  0.62728  1.0000
  O   O25       1.0  0.38292  0.98795  0.30540  1.0000
  O   O26       1.0  0.61708  0.01205  0.69460  1.0000
  O   O27       1.0  0.41972  0.98880  0.59104  1.0000
  O   O28       1.0  0.58028  0.01120  0.40896  1.0000
  O   O29       1.0  0.58744  0.33796  0.61033  1.0000
  O   O30       1.0  0.41256  0.66204  0.38967  1.0000
  O   O31       1.0  0.86508  0.48710  0.58682  1.0000
  O   O32       1.0  0.13492  0.51290  0.41318  1.0000
  O   O33       1.0  0.94861  0.72701  0.59777  1.0000
  O   O34       1.0  0.05139  0.27299  0.40223  1.0000
  O   O35       1.0  0.28771  0.58815  0.61723  1.0000
  O   O36       1.0  0.71229  0.41185  0.38277  1.0000
  O   O37       1.0  0.04271  0.53667  0.79465  1.0000
  O   O38       1.0  0.95729  0.46333  0.20535  1.0000
  V   V1        1.0  0.29700  0.18074  0.60795  1.0000
  V   V2        1.0  0.70300  0.81926  0.39205  1.0000
  V   V3        1.0  0.48687  0.20439  0.39772  1.0000
  V   V4        1.0  0.51313  0.79561  0.60228  1.0000
  V   V5        1.0  0.19506  0.96112  0.64649  1.0000
  V   V6        1.0  0.80494  0.03888  0.35351  1.0000
  V   V7        1.0  0.37738  0.98799  0.43471  1.0000
  V   V8        1.0  0.62262  0.01201  0.56529  1.0000
  V   V9        1.0  0.42412  0.98823  0.76580  1.0000
  V   V10       1.0  0.57588  0.01176  0.23420  1.0000
  N   N1        1.0  0.95512  0.61325  0.95633  1.0000
  N   N2        1.0  0.04488  0.38675  0.04367  1.0000
  N   N3        1.0  0.92545  0.73019  0.80666  1.0000
  N   N4        1.0  0.07455  0.26981  0.19334  1.0000
  N   N5        1.0  0.85747  0.68943  0.11830  1.0000
  N   N6        1.0  0.14253  0.31057  0.88170  1.0000
  C   C1        1.0  0.87924  0.70570  0.01651  1.0000
  C   C2        1.0  0.12076  0.29430  0.98349  1.0000
  C   C3        1.0  0.82272  0.81711  0.96974  1.0000
  C   C4        1.0  0.17728  0.18289  0.03026  1.0000
  C   C5        1.0  0.84674  0.82445  0.86461  1.0000
  C   C6        1.0  0.15326  0.17555  0.13539  1.0000
  C   C7        1.0  0.97804  0.62231  0.85011  1.0000
  C   C8        1.0  0.02196  0.37769  0.14989  1.0000
  H   H1        1.0  0.97400  0.55000  0.97700  1.0000
  H   H2        1.0  0.02600  0.45000  0.02300  1.0000
  H   H3        1.0  0.88900  0.61190  0.14640  1.0000
  H   H4        1.0  0.11100  0.38810  0.85360  1.0000
  H   H5        1.0  0.80000  0.75040  0.16200  1.0000
  H   H6        1.0  0.20000  0.24960  0.83800  1.0000
  H   H7        1.0  0.75100  0.88400  0.01560  1.0000
  H   H8        1.0  0.24900  0.11600  0.98440  1.0000
  H   H9        1.0  0.81200  0.89700  0.82190  1.0000
  H   H10       1.0  0.18800  0.10300  0.17810  1.0000
  H   H11       1.0  0.93500  0.73460  0.73330  1.0000
  H   H12       1.0  0.06500  0.26540  0.26670  1.0000
  H   H13       1.0  0.55300  0.28300  0.58870  1.0000
  H   H14       1.0  0.44700  0.71700  0.41130  1.0000
  H   H15       1.0  0.00600  0.76230  0.56200  1.0000
  H   H16       1.0  0.99400  0.23770  0.43800  1.0000
  H   H17       1.0  0.84900  0.43800  0.64000  1.0000
  H   H18       1.0  0.15100  0.56200  0.36000  1.0000
  H   H19       1.0  0.32200  0.55700  0.67300  1.0000
  H   H20       1.0  0.67800  0.44300  0.32700  1.0000
  H   H21       1.0  0.68600  0.31400  0.60120  1.0000
  H   H22       1.0  0.31400  0.68600  0.39880  1.0000
  H   H23       1.0  0.86100  0.76690  0.58250  1.0000
  H   H24       1.0  0.13900  0.23310  0.41750  1.0000
  H   H25       1.0  0.28200  0.66470  0.61620  1.0000
  H   H26       1.0  0.71800  0.33530  0.38380  1.0000
  H   H27       1.0  0.78700  0.54100  0.59200  1.0000
  H   H28       1.0  0.21300  0.45900  0.40800  1.0000
