data_image0
_chemical_formula_structural       Cd4O12C4H4C4H4O4C4H4O8
_chemical_formula_sum              "Cd4 O24 C12 H12"
_cell_length_a       7.0025
_cell_length_b       9.506
_cell_length_c       10.9003
_cell_angle_alpha    90
_cell_angle_beta     90
_cell_angle_gamma    90

_space_group_name_H-M_alt    "P 1"
_space_group_IT_number       1

loop_
  _space_group_symop_operation_xyz
  'x, y, z'

loop_
  _atom_site_type_symbol
  _atom_site_label
  _atom_site_symmetry_multiplicity
  _atom_site_fract_x
  _atom_site_fract_y
  _atom_site_fract_z
  _atom_site_occupancy
  Cd  Cd1       1.0  0.89711  0.00350  0.26603  1.0000
  Cd  Cd2       1.0  0.10289  0.99650  0.76603  1.0000
  Cd  Cd3       1.0  0.60289  0.50350  0.76603  1.0000
  Cd  Cd4       1.0  0.39711  0.49650  0.26603  1.0000
  O   O1        1.0  0.16810  0.90590  0.34340  1.0000
  O   O2        1.0  0.83190  0.09410  0.84340  1.0000
  O   O3        1.0  0.33190  0.40590  0.84340  1.0000
  O   O4        1.0  0.66810  0.59410  0.34340  1.0000
  O   O5        1.0  0.06920  0.21153  0.26970  1.0000
  O   O6        1.0  0.93080  0.78847  0.76970  1.0000
  O   O7        1.0  0.43080  0.71153  0.76970  1.0000
  O   O8        1.0  0.56920  0.28847  0.26970  1.0000
  O   O9        1.0  0.14480  0.40240  0.16202  1.0000
  O   O10       1.0  0.85520  0.59760  0.66202  1.0000
  O   O11       1.0  0.35520  0.90240  0.66202  1.0000
  O   O12       1.0  0.64480  0.09760  0.16202  1.0000
  C   C1        1.0  0.05320  0.29270  0.18110  1.0000
  C   C2        1.0  0.94680  0.70730  0.68110  1.0000
  C   C3        1.0  0.44680  0.79270  0.68110  1.0000
  C   C4        1.0  0.55320  0.20730  0.18110  1.0000
  H   H1        1.0  0.96230  0.26880  0.12250  1.0000
  H   H2        1.0  0.03770  0.73120  0.62250  1.0000
  H   H3        1.0  0.53770  0.76880  0.62250  1.0000
  H   H4        1.0  0.46230  0.23120  0.12250  1.0000
  C   C5        1.0  0.25950  0.79530  0.32740  1.0000
  C   C6        1.0  0.74050  0.20470  0.82740  1.0000
  C   C7        1.0  0.24050  0.29530  0.82740  1.0000
  C   C8        1.0  0.75950  0.70470  0.32740  1.0000
  H   H5        1.0  0.35910  0.77840  0.38190  1.0000
  H   H6        1.0  0.64090  0.22160  0.88190  1.0000
  H   H7        1.0  0.14090  0.27840  0.88190  1.0000
  H   H8        1.0  0.85910  0.72160  0.38190  1.0000
  O   O13       1.0  0.01310  0.96250  0.07140  1.0000
  O   O14       1.0  0.98690  0.03750  0.57140  1.0000
  O   O15       1.0  0.48690  0.46250  0.57140  1.0000
  O   O16       1.0  0.51310  0.53750  0.07140  1.0000
  C   C9        1.0  0.18450  0.97010  0.04930  1.0000
  C   C10       1.0  0.81550  0.02990  0.54930  1.0000
  C   C11       1.0  0.31550  0.47010  0.54930  1.0000
  C   C12       1.0  0.68450  0.52990  0.04930  1.0000
  H   H9        1.0  0.26560  0.98680  0.11520  1.0000
  H   H10       1.0  0.73440  0.01320  0.61520  1.0000
  H   H11       1.0  0.23440  0.48680  0.61520  1.0000
  H   H12       1.0  0.76560  0.51320  0.11520  1.0000
  O   O17       1.0  0.23350  0.70491  0.24733  1.0000
  O   O18       1.0  0.76650  0.29509  0.74733  1.0000
  O   O19       1.0  0.26650  0.20491  0.74733  1.0000
  O   O20       1.0  0.73350  0.79509  0.24733  1.0000
  O   O21       1.0  0.25990  0.95740  0.94563  1.0000
  O   O22       1.0  0.74010  0.04260  0.44563  1.0000
  O   O23       1.0  0.24010  0.45740  0.44563  1.0000
  O   O24       1.0  0.75990  0.54260  0.94563  1.0000
