data_image0
_chemical_formula_structural       Fe4O24C12H12
_chemical_formula_sum              "Fe4 O24 C12 H12"
_cell_length_a       6.589
_cell_length_b       7.004
_cell_length_c       13.771
_cell_angle_alpha    90
_cell_angle_beta     90
_cell_angle_gamma    90

_space_group_name_H-M_alt    "P 1"
_space_group_IT_number       1

loop_
  _space_group_symop_operation_xyz
  'x, y, z'

loop_
  _atom_site_type_symbol
  _atom_site_label
  _atom_site_symmetry_multiplicity
  _atom_site_fract_x
  _atom_site_fract_y
  _atom_site_fract_z
  _atom_site_occupancy
  Fe  Fe1       1.0  0.63510  0.71320  0.85020  1.0000
  Fe  Fe2       1.0  0.36490  0.21320  0.14980  1.0000
  Fe  Fe3       1.0  0.13680  0.21830  0.64860  1.0000
  Fe  Fe4       1.0  0.86320  0.71830  0.35140  1.0000
  O   O1        1.0  0.05400  0.09200  0.77540  1.0000
  O   O2        1.0  0.94600  0.59200  0.22460  1.0000
  O   O3        1.0  0.49100  0.42900  0.06750  1.0000
  O   O4        1.0  0.50900  0.92900  0.93250  1.0000
  O   O5        1.0  0.36800  0.58600  0.85600  1.0000
  O   O6        1.0  0.63200  0.08600  0.14400  1.0000
  O   O7        1.0  0.72900  0.58800  0.98510  1.0000
  O   O8        1.0  0.27100  0.08800  0.01490  1.0000
  O   O9        1.0  0.77500  0.48600  0.77960  1.0000
  O   O10       1.0  0.22500  0.98600  0.22040  1.0000
  O   O11       1.0  0.41800  0.07200  0.63770  1.0000
  O   O12       1.0  0.58200  0.57200  0.36230  1.0000
  O   O13       1.0  0.91100  0.86400  0.85630  1.0000
  O   O14       1.0  0.08900  0.36400  0.14370  1.0000
  O   O15       1.0  0.28000  0.45500  0.72380  1.0000
  O   O16       1.0  0.72000  0.95500  0.27620  1.0000
  O   O17       1.0  0.84700  0.33700  0.63550  1.0000
  O   O18       1.0  0.15300  0.83700  0.36450  1.0000
  O   O19       1.0  0.99500  0.49400  0.43380  1.0000
  O   O20       1.0  0.00500  0.99400  0.56620  1.0000
  O   O21       1.0  0.57600  0.86800  0.72240  1.0000
  O   O22       1.0  0.42400  0.36800  0.27760  1.0000
  O   O23       1.0  0.22000  0.34000  0.51340  1.0000
  O   O24       1.0  0.78000  0.84000  0.48660  1.0000
  C   C1        1.0  0.12900  0.37100  0.44300  1.0000
  C   C2        1.0  0.87100  0.87100  0.55700  1.0000
  C   C3        1.0  0.53800  0.02500  0.70500  1.0000
  C   C4        1.0  0.46200  0.52500  0.29500  1.0000
  C   C5        1.0  0.01800  0.92800  0.79800  1.0000
  C   C6        1.0  0.98200  0.42800  0.20200  1.0000
  C   C7        1.0  0.75900  0.46000  0.69150  1.0000
  C   C8        1.0  0.24100  0.96000  0.30850  1.0000
  C   C9        1.0  0.61800  0.57300  0.04500  1.0000
  C   C10       1.0  0.38200  0.07300  0.95500  1.0000
  C   C11       1.0  0.23800  0.48100  0.80820  1.0000
  C   C12       1.0  0.76200  0.98100  0.19180  1.0000
  H   H1        1.0  0.16024  0.29407  0.38740  1.0000
  H   H2        1.0  0.83976  0.79407  0.61260  1.0000
  H   H3        1.0  0.59961  0.12418  0.74299  1.0000
  H   H4        1.0  0.40039  0.62418  0.25701  1.0000
  H   H5        1.0  0.09028  0.83500  0.75991  1.0000
  H   H6        1.0  0.90972  0.33500  0.24009  1.0000
  H   H7        1.0  0.66654  0.54433  0.65912  1.0000
  H   H8        1.0  0.33346  0.04433  0.34088  1.0000
  H   H9        1.0  0.61268  0.68054  0.08870  1.0000
  H   H10       1.0  0.38732  0.18054  0.91130  1.0000
  H   H11       1.0  0.11856  0.42859  0.83776  1.0000
  H   H12       1.0  0.88144  0.92859  0.16224  1.0000
