data_image0
_chemical_formula_structural       In4O32C8H4C8H4C8H4C8H4C8H4C8H4C8H4C12H4C4H4C8H4C4H4C12H4C20H8C4H8
_chemical_formula_sum              "In4 O32 C120 H64"
_cell_length_a       9.848
_cell_length_b       9.848
_cell_length_c       35.0588
_cell_angle_alpha    90
_cell_angle_beta     90
_cell_angle_gamma    90

_space_group_name_H-M_alt    "P 1"
_space_group_IT_number       1

loop_
  _space_group_symop_operation_xyz
  'x, y, z'

loop_
  _atom_site_type_symbol
  _atom_site_label
  _atom_site_symmetry_multiplicity
  _atom_site_fract_x
  _atom_site_fract_y
  _atom_site_fract_z
  _atom_site_occupancy
  In  In1       1.0  0.15131  0.23063  0.93583  1.0000
  In  In2       1.0  0.76937  0.15131  0.18583  1.0000
  In  In3       1.0  0.84869  0.76937  0.43583  1.0000
  In  In4       1.0  0.23063  0.84869  0.68583  1.0000
  O   O1        1.0  0.14800  0.46250  0.92806  1.0000
  O   O2        1.0  0.53750  0.14800  0.17806  1.0000
  O   O3        1.0  0.85200  0.53750  0.42806  1.0000
  O   O4        1.0  0.46250  0.85200  0.67806  1.0000
  O   O5        1.0  0.99320  0.77970  0.38898  1.0000
  O   O6        1.0  0.22030  0.99320  0.63898  1.0000
  O   O7        1.0  0.00680  0.22030  0.88898  1.0000
  O   O8        1.0  0.77970  0.00680  0.13898  1.0000
  O   O9        1.0  0.71550  0.76380  0.38388  1.0000
  O   O10       1.0  0.23620  0.71550  0.63388  1.0000
  O   O11       1.0  0.28450  0.23620  0.88388  1.0000
  O   O12       1.0  0.76380  0.28450  0.13388  1.0000
  O   O13       1.0  0.16300  0.08440  0.98218  1.0000
  O   O14       1.0  0.91560  0.16300  0.23218  1.0000
  O   O15       1.0  0.83700  0.91560  0.48218  1.0000
  O   O16       1.0  0.08440  0.83700  0.73218  1.0000
  O   O17       1.0  0.14960  0.36890  0.98560  1.0000
  O   O18       1.0  0.63110  0.14960  0.23560  1.0000
  O   O19       1.0  0.85040  0.63110  0.48560  1.0000
  O   O20       1.0  0.36890  0.85040  0.73560  1.0000
  O   O21       1.0  0.09410  0.76900  0.44370  1.0000
  O   O22       1.0  0.23100  0.09410  0.69370  1.0000
  O   O23       1.0  0.90590  0.23100  0.94370  1.0000
  O   O24       1.0  0.76900  0.90590  0.19370  1.0000
  O   O25       1.0  0.61770  0.75110  0.43910  1.0000
  O   O26       1.0  0.24890  0.61770  0.68910  1.0000
  O   O27       1.0  0.38230  0.24890  0.93910  1.0000
  O   O28       1.0  0.75110  0.38230  0.18910  1.0000
  O   O29       1.0  0.16910  0.98890  0.92673  1.0000
  O   O30       1.0  0.01110  0.16910  0.17673  1.0000
  O   O31       1.0  0.83090  0.01110  0.42673  1.0000
  O   O32       1.0  0.98890  0.83090  0.67673  1.0000
  C   C1        1.0  0.17850  0.60580  0.98290  1.0000
  C   C2        1.0  0.39420  0.17850  0.23290  1.0000
  C   C3        1.0  0.82150  0.39420  0.48290  1.0000
  C   C4        1.0  0.60580  0.82150  0.73290  1.0000
  C   C5        1.0  0.17140  0.72370  0.96150  1.0000
  C   C6        1.0  0.27630  0.17140  0.21150  1.0000
  C   C7        1.0  0.82860  0.27630  0.46150  1.0000
  C   C8        1.0  0.72370  0.82860  0.71150  1.0000
  H   H1        1.0  0.15190  0.72250  0.93500  1.0000
  H   H2        1.0  0.27750  0.15190  0.18500  1.0000
  H   H3        1.0  0.84810  0.27750  0.43500  1.0000
  H   H4        1.0  0.72250  0.84810  0.68500  1.0000
  C   C9        1.0  0.19500  0.84620  0.98150  1.0000
  C   C10       1.0  0.15380  0.19500  0.23150  1.0000
  C   C11       1.0  0.80500  0.15380  0.48150  1.0000
  C   C12       1.0  0.84620  0.80500  0.73150  1.0000
  C   C13       1.0  0.22950  0.84480  0.01960  1.0000
  C   C14       1.0  0.15520  0.22950  0.26960  1.0000
  C   C15       1.0  0.77050  0.15520  0.51960  1.0000
  C   C16       1.0  0.84480  0.77050  0.76960  1.0000
  H   H5        1.0  0.24890  0.92880  0.03180  1.0000
  H   H6        1.0  0.07120  0.24890  0.28180  1.0000
  H   H7        1.0  0.75110  0.07120  0.53180  1.0000
  H   H8        1.0  0.92880  0.75110  0.78180  1.0000
  C   C17       1.0  0.23680  0.73110  0.04020  1.0000
  C   C18       1.0  0.26890  0.23680  0.29020  1.0000
  C   C19       1.0  0.76320  0.26890  0.54020  1.0000
  C   C20       1.0  0.73110  0.76320  0.79020  1.0000
  C   C21       1.0  0.20870  0.60750  0.02190  1.0000
  C   C22       1.0  0.39250  0.20870  0.27190  1.0000
  C   C23       1.0  0.79130  0.39250  0.52190  1.0000
  C   C24       1.0  0.60750  0.79130  0.77190  1.0000
  H   H9        1.0  0.21030  0.52500  0.03590  1.0000
  H   H10       1.0  0.47500  0.21030  0.28590  1.0000
  H   H11       1.0  0.78970  0.47500  0.53590  1.0000
  H   H12       1.0  0.52500  0.78970  0.78590  1.0000
  C   C25       1.0  0.47240  0.75320  0.38480  1.0000
  C   C26       1.0  0.24680  0.47240  0.63480  1.0000
  C   C27       1.0  0.52760  0.24680  0.88480  1.0000
  C   C28       1.0  0.75320  0.52760  0.13480  1.0000
  C   C29       1.0  0.46910  0.74680  0.34600  1.0000
  C   C30       1.0  0.25320  0.46910  0.59600  1.0000
  C   C31       1.0  0.53090  0.25320  0.84600  1.0000
  C   C32       1.0  0.74680  0.53090  0.09600  1.0000
  H   H13       1.0  0.55210  0.74670  0.33220  1.0000
  H   H14       1.0  0.25330  0.55210  0.58220  1.0000
  H   H15       1.0  0.44790  0.25330  0.83220  1.0000
  H   H16       1.0  0.74670  0.44790  0.08220  1.0000
  C   C33       1.0  0.34530  0.74030  0.32590  1.0000
  C   C34       1.0  0.25970  0.34530  0.57590  1.0000
  C   C35       1.0  0.65470  0.25970  0.82590  1.0000
  C   C36       1.0  0.74030  0.65470  0.07590  1.0000
  C   C37       1.0  0.22650  0.75020  0.34820  1.0000
  C   C38       1.0  0.24980  0.22650  0.59820  1.0000
  C   C39       1.0  0.77350  0.24980  0.84820  1.0000
  C   C40       1.0  0.75020  0.77350  0.09820  1.0000
  H   H17       1.0  0.14080  0.75130  0.33580  1.0000
  H   H18       1.0  0.24870  0.14080  0.58580  1.0000
  H   H19       1.0  0.85920  0.24870  0.83580  1.0000
  H   H20       1.0  0.75130  0.85920  0.08580  1.0000
  C   C41       1.0  0.23110  0.75820  0.38720  1.0000
  C   C42       1.0  0.24180  0.23110  0.63720  1.0000
  C   C43       1.0  0.76890  0.24180  0.88720  1.0000
  C   C44       1.0  0.75820  0.76890  0.13720  1.0000
  C   C45       1.0  0.35330  0.75890  0.40530  1.0000
  C   C46       1.0  0.24110  0.35330  0.65530  1.0000
  C   C47       1.0  0.64670  0.24110  0.90530  1.0000
  C   C48       1.0  0.75890  0.64670  0.15530  1.0000
  H   H21       1.0  0.35650  0.76330  0.43240  1.0000
  H   H22       1.0  0.23670  0.35650  0.68240  1.0000
  H   H23       1.0  0.64350  0.23670  0.93240  1.0000
  H   H24       1.0  0.76330  0.64350  0.18240  1.0000
  C   C49       1.0  0.33940  0.73430  0.28390  1.0000
  C   C50       1.0  0.26570  0.33940  0.53390  1.0000
  C   C51       1.0  0.66060  0.26570  0.78390  1.0000
  C   C52       1.0  0.73430  0.66060  0.03390  1.0000
  C   C53       1.0  0.23540  0.67210  0.26670  1.0000
  C   C54       1.0  0.32790  0.23540  0.51670  1.0000
  C   C55       1.0  0.76460  0.32790  0.76670  1.0000
  C   C56       1.0  0.67210  0.76460  0.01670  1.0000
  H   H25       1.0  0.16860  0.62890  0.28200  1.0000
  H   H26       1.0  0.37110  0.16860  0.53200  1.0000
  H   H27       1.0  0.83140  0.37110  0.78200  1.0000
  H   H28       1.0  0.62890  0.83140  0.03200  1.0000
  C   C57       1.0  0.22120  0.66830  0.22760  1.0000
  C   C58       1.0  0.33170  0.22120  0.47760  1.0000
  C   C59       1.0  0.77880  0.33170  0.72760  1.0000
  C   C60       1.0  0.66830  0.77880  0.97760  1.0000
  C   C61       1.0  0.31960  0.73110  0.20450  1.0000
  C   C62       1.0  0.26890  0.31960  0.45450  1.0000
  C   C63       1.0  0.68040  0.26890  0.70450  1.0000
  C   C64       1.0  0.73110  0.68040  0.95450  1.0000
  C   C65       1.0  0.43500  0.78750  0.22140  1.0000
  C   C66       1.0  0.21250  0.43500  0.47140  1.0000
  C   C67       1.0  0.56500  0.21250  0.72140  1.0000
  C   C68       1.0  0.78750  0.56500  0.97140  1.0000
  H   H29       1.0  0.50830  0.82130  0.20650  1.0000
  H   H30       1.0  0.17870  0.50830  0.45650  1.0000
  H   H31       1.0  0.49170  0.17870  0.70650  1.0000
  H   H32       1.0  0.82130  0.49170  0.95650  1.0000
  C   C69       1.0  0.43700  0.79180  0.26090  1.0000
  C   C70       1.0  0.20820  0.43700  0.51090  1.0000
  C   C71       1.0  0.56300  0.20820  0.76090  1.0000
  C   C72       1.0  0.79180  0.56300  0.01090  1.0000
  H   H33       1.0  0.51060  0.83730  0.27280  1.0000
  H   H34       1.0  0.16270  0.51060  0.52280  1.0000
  H   H35       1.0  0.48940  0.16270  0.77280  1.0000
  H   H36       1.0  0.83730  0.48940  0.02280  1.0000
  C   C73       1.0  0.26230  0.73060  0.08200  1.0000
  C   C74       1.0  0.26940  0.26230  0.33200  1.0000
  C   C75       1.0  0.73770  0.26940  0.58200  1.0000
  C   C76       1.0  0.73060  0.73770  0.83200  1.0000
  C   C77       1.0  0.35480  0.81870  0.09920  1.0000
  C   C78       1.0  0.18130  0.35480  0.34920  1.0000
  C   C79       1.0  0.64520  0.18130  0.59920  1.0000
  C   C80       1.0  0.81870  0.64520  0.84920  1.0000
  H   H37       1.0  0.40340  0.88140  0.08380  1.0000
  H   H38       1.0  0.11860  0.40340  0.33380  1.0000
  H   H39       1.0  0.59660  0.11860  0.58380  1.0000
  H   H40       1.0  0.88140  0.59660  0.83380  1.0000
  C   C81       1.0  0.37820  0.81730  0.13890  1.0000
  C   C82       1.0  0.18270  0.37820  0.38890  1.0000
  C   C83       1.0  0.62180  0.18270  0.63890  1.0000
  C   C84       1.0  0.81730  0.62180  0.88890  1.0000
  H   H41       1.0  0.44430  0.87630  0.14970  1.0000
  H   H42       1.0  0.12370  0.44430  0.39970  1.0000
  H   H43       1.0  0.55570  0.12370  0.64970  1.0000
  H   H44       1.0  0.87630  0.55570  0.89970  1.0000
  C   C85       1.0  0.30250  0.72700  0.16320  1.0000
  C   C86       1.0  0.27300  0.30250  0.41320  1.0000
  C   C87       1.0  0.69750  0.27300  0.66320  1.0000
  C   C88       1.0  0.72700  0.69750  0.91320  1.0000
  C   C89       1.0  0.21110  0.63870  0.14610  1.0000
  C   C90       1.0  0.36130  0.21110  0.39610  1.0000
  C   C91       1.0  0.78890  0.36130  0.64610  1.0000
  C   C92       1.0  0.63870  0.78890  0.89610  1.0000
  C   C93       1.0  0.19070  0.63940  0.10600  1.0000
  C   C94       1.0  0.36060  0.19070  0.35600  1.0000
  C   C95       1.0  0.80930  0.36060  0.60600  1.0000
  C   C96       1.0  0.63940  0.80930  0.85600  1.0000
  H   H45       1.0  0.12780  0.57750  0.09500  1.0000
  H   H46       1.0  0.42250  0.12780  0.34500  1.0000
  H   H47       1.0  0.87220  0.42250  0.59500  1.0000
  H   H48       1.0  0.57750  0.87220  0.84500  1.0000
  C   C97       1.0  0.60980  0.76380  0.40400  1.0000
  C   C98       1.0  0.23620  0.60980  0.65400  1.0000
  C   C99       1.0  0.39020  0.23620  0.90400  1.0000
  C   C100      1.0  0.76380  0.39020  0.15400  1.0000
  C   C101      1.0  0.15620  0.47730  0.96420  1.0000
  C   C102      1.0  0.52270  0.15620  0.21420  1.0000
  C   C103      1.0  0.84380  0.52270  0.46420  1.0000
  C   C104      1.0  0.47730  0.84380  0.71420  1.0000
  C   C105      1.0  0.17800  0.97620  0.96180  1.0000
  C   C106      1.0  0.02380  0.17800  0.21180  1.0000
  C   C107      1.0  0.82200  0.02380  0.46180  1.0000
  C   C108      1.0  0.97620  0.82200  0.71180  1.0000
  C   C109      1.0  0.09870  0.76490  0.40850  1.0000
  C   C110      1.0  0.23510  0.09870  0.65850  1.0000
  C   C111      1.0  0.90130  0.23510  0.90850  1.0000
  C   C112      1.0  0.76490  0.90130  0.15850  1.0000
  C   C113      1.0  0.13220  0.54290  0.17070  1.0000
  C   C114      1.0  0.45710  0.13220  0.42070  1.0000
  C   C115      1.0  0.86780  0.45710  0.67070  1.0000
  C   C116      1.0  0.54290  0.86780  0.92070  1.0000
  H   H49       1.0  0.18820  0.46180  0.17630  1.0000
  H   H50       1.0  0.53820  0.18820  0.42630  1.0000
  H   H51       1.0  0.81180  0.53820  0.67630  1.0000
  H   H52       1.0  0.46180  0.81180  0.92630  1.0000
  H   H53       1.0  0.04990  0.51270  0.15690  1.0000
  H   H54       1.0  0.48730  0.04990  0.40690  1.0000
  H   H55       1.0  0.95010  0.48730  0.65690  1.0000
  H   H56       1.0  0.51270  0.95010  0.90690  1.0000
  C   C117      1.0  0.09130  0.61070  0.20790  1.0000
  C   C118      1.0  0.38930  0.09130  0.45790  1.0000
  C   C119      1.0  0.90870  0.38930  0.70790  1.0000
  C   C120      1.0  0.61070  0.90870  0.95790  1.0000
  H   H57       1.0  0.04650  0.54390  0.22480  1.0000
  H   H58       1.0  0.45610  0.04650  0.47480  1.0000
  H   H59       1.0  0.95350  0.45610  0.72480  1.0000
  H   H60       1.0  0.54390  0.95350  0.97480  1.0000
  H   H61       1.0  0.02640  0.68520  0.20270  1.0000
  H   H62       1.0  0.31480  0.02640  0.45270  1.0000
  H   H63       1.0  0.97360  0.31480  0.70270  1.0000
  H   H64       1.0  0.68520  0.97360  0.95270  1.0000
