data_image0
_chemical_formula_structural       Co4C12H4C20H4C12H4C4H4C8H4C4H4C4H8C2H4C4H4C4H4C8H4C4H4C4H8C2H4N8O8H8O8H8O12H4O12
_chemical_formula_sum              "Co4 C92 H84 N8 O40"
_cell_length_a       18.198
_cell_length_b       9.3723
_cell_length_c       18.236
_cell_angle_alpha    90
_cell_angle_beta     96.6
_cell_angle_gamma    90

_space_group_name_H-M_alt    "P 1"
_space_group_IT_number       1

loop_
  _space_group_symop_operation_xyz
  'x, y, z'

loop_
  _atom_site_type_symbol
  _atom_site_label
  _atom_site_symmetry_multiplicity
  _atom_site_fract_x
  _atom_site_fract_y
  _atom_site_fract_z
  _atom_site_occupancy
  Co  Co1       1.0  0.50000  0.00000  0.50000  1.0000
  Co  Co2       1.0  0.00000  0.00000  0.00000  1.0000
  Co  Co3       1.0  0.50000  0.00000  0.00000  1.0000
  Co  Co4       1.0  0.00000  0.00000  0.50000  1.0000
  C   C1        1.0  0.57680  0.16270  0.63972  1.0000
  C   C2        1.0  0.92320  0.16270  0.86028  1.0000
  C   C3        1.0  0.42320  0.83730  0.36028  1.0000
  C   C4        1.0  0.07680  0.83730  0.13972  1.0000
  C   C5        1.0  0.55658  0.26570  0.69896  1.0000
  C   C6        1.0  0.94342  0.26570  0.80104  1.0000
  C   C7        1.0  0.44342  0.73430  0.30104  1.0000
  C   C8        1.0  0.05658  0.73430  0.19896  1.0000
  C   C9        1.0  0.53064  0.20240  0.76002  1.0000
  C   C10       1.0  0.96936  0.20240  0.73998  1.0000
  C   C11       1.0  0.46936  0.79760  0.23998  1.0000
  C   C12       1.0  0.03064  0.79760  0.26002  1.0000
  H   H1        1.0  0.53650  0.10460  0.76690  1.0000
  H   H2        1.0  0.96350  0.10460  0.73310  1.0000
  H   H3        1.0  0.46350  0.89540  0.23310  1.0000
  H   H4        1.0  0.03650  0.89540  0.26690  1.0000
  C   C13       1.0  0.49613  0.28100  0.81128  1.0000
  C   C14       1.0  0.00387  0.28100  0.68872  1.0000
  C   C15       1.0  0.50387  0.71900  0.18872  1.0000
  C   C16       1.0  0.99613  0.71900  0.31128  1.0000
  C   C17       1.0  0.46472  0.19230  0.86973  1.0000
  C   C18       1.0  0.03528  0.19230  0.63027  1.0000
  C   C19       1.0  0.53528  0.80770  0.13027  1.0000
  C   C20       1.0  0.96472  0.80770  0.36973  1.0000
  C   C21       1.0  0.48889  0.42820  0.80211  1.0000
  C   C22       1.0  0.01111  0.42820  0.69789  1.0000
  C   C23       1.0  0.51111  0.57180  0.19789  1.0000
  C   C24       1.0  0.98889  0.57180  0.30211  1.0000
  C   C25       1.0  0.45105  0.52190  0.85297  1.0000
  C   C26       1.0  0.04895  0.52190  0.64703  1.0000
  C   C27       1.0  0.54895  0.47810  0.14703  1.0000
  C   C28       1.0  0.95105  0.47810  0.35297  1.0000
  C   C29       1.0  0.51846  0.49280  0.74310  1.0000
  C   C30       1.0  0.98154  0.49280  0.75690  1.0000
  C   C31       1.0  0.48154  0.50720  0.25690  1.0000
  C   C32       1.0  0.01846  0.50720  0.24310  1.0000
  H   H5        1.0  0.51590  0.59150  0.73840  1.0000
  H   H6        1.0  0.98410  0.59150  0.76160  1.0000
  H   H7        1.0  0.48410  0.40850  0.26160  1.0000
  H   H8        1.0  0.01590  0.40850  0.23840  1.0000
  C   C33       1.0  0.55174  0.41420  0.69101  1.0000
  C   C34       1.0  0.94826  0.41420  0.80899  1.0000
  C   C35       1.0  0.44826  0.58580  0.30899  1.0000
  C   C36       1.0  0.05174  0.58580  0.19101  1.0000
  C   C37       1.0  0.58106  0.49240  0.62780  1.0000
  C   C38       1.0  0.91894  0.49240  0.87220  1.0000
  C   C39       1.0  0.41894  0.50760  0.37220  1.0000
  C   C40       1.0  0.08106  0.50760  0.12780  1.0000
  C   C41       1.0  0.55717  0.12400  0.36401  1.0000
  C   C42       1.0  0.94283  0.12400  0.13599  1.0000
  C   C43       1.0  0.44283  0.87600  0.63599  1.0000
  C   C44       1.0  0.05717  0.87600  0.86401  1.0000
  H   H9        1.0  0.51180  0.09010  0.34230  1.0000
  H   H10       1.0  0.98820  0.09010  0.15770  1.0000
  H   H11       1.0  0.48820  0.90990  0.65770  1.0000
  H   H12       1.0  0.01180  0.90990  0.84230  1.0000
  C   C45       1.0  0.60088  0.19910  0.32097  1.0000
  C   C46       1.0  0.89912  0.19910  0.17903  1.0000
  C   C47       1.0  0.39912  0.80090  0.67903  1.0000
  C   C48       1.0  0.10088  0.80090  0.82097  1.0000
  H   H13       1.0  0.58540  0.21370  0.27110  1.0000
  H   H14       1.0  0.91460  0.21370  0.22890  1.0000
  H   H15       1.0  0.41460  0.78630  0.72890  1.0000
  H   H16       1.0  0.08540  0.78630  0.77110  1.0000
  C   C49       1.0  0.66811  0.25290  0.35221  1.0000
  C   C50       1.0  0.83189  0.25290  0.14779  1.0000
  C   C51       1.0  0.33189  0.74710  0.64779  1.0000
  C   C52       1.0  0.16811  0.74710  0.85221  1.0000
  C   C53       1.0  0.68985  0.22080  0.42539  1.0000
  C   C54       1.0  0.81015  0.22080  0.07461  1.0000
  C   C55       1.0  0.31015  0.77920  0.57461  1.0000
  C   C56       1.0  0.18985  0.77920  0.92539  1.0000
  H   H17       1.0  0.73590  0.24990  0.44780  1.0000
  H   H18       1.0  0.76410  0.24990  0.05220  1.0000
  H   H19       1.0  0.26410  0.75010  0.55220  1.0000
  H   H20       1.0  0.23590  0.75010  0.94780  1.0000
  C   C57       1.0  0.64259  0.14510  0.46487  1.0000
  C   C58       1.0  0.85741  0.14510  0.03513  1.0000
  C   C59       1.0  0.35741  0.85490  0.53513  1.0000
  C   C60       1.0  0.14259  0.85490  0.96487  1.0000
  H   H21       1.0  0.65750  0.12660  0.51440  1.0000
  H   H22       1.0  0.84250  0.12660  0.98560  1.0000
  H   H23       1.0  0.34250  0.87340  0.48560  1.0000
  H   H24       1.0  0.15750  0.87340  0.01440  1.0000
  C   C61       1.0  0.71522  0.34120  0.30595  1.0000
  C   C62       1.0  0.78478  0.34120  0.19405  1.0000
  C   C63       1.0  0.28478  0.65880  0.69405  1.0000
  C   C64       1.0  0.21522  0.65880  0.80595  1.0000
  H   H25       1.0  0.75400  0.38810  0.33810  1.0000
  H   H26       1.0  0.74600  0.38810  0.16190  1.0000
  H   H27       1.0  0.24600  0.61190  0.66190  1.0000
  H   H28       1.0  0.25400  0.61190  0.83810  1.0000
  H   H29       1.0  0.68480  0.41440  0.28000  1.0000
  H   H30       1.0  0.81520  0.41440  0.22000  1.0000
  H   H31       1.0  0.31520  0.58560  0.72000  1.0000
  H   H32       1.0  0.18480  0.58560  0.78000  1.0000
  C   C65       1.0  0.75000  0.24890  0.25000  1.0000
  C   C66       1.0  0.25000  0.75110  0.75000  1.0000
  H   H33       1.0  0.78740  0.18880  0.27540  1.0000
  H   H34       1.0  0.71260  0.18880  0.22460  1.0000
  H   H35       1.0  0.21260  0.81120  0.72460  1.0000
  H   H36       1.0  0.28740  0.81120  0.77540  1.0000
  C   C67       1.0  0.41489  0.23410  0.06912  1.0000
  C   C68       1.0  0.08511  0.23410  0.43088  1.0000
  C   C69       1.0  0.58511  0.76590  0.93088  1.0000
  C   C70       1.0  0.91489  0.76590  0.56912  1.0000
  H   H37       1.0  0.45040  0.29040  0.05030  1.0000
  H   H38       1.0  0.04960  0.29040  0.44970  1.0000
  H   H39       1.0  0.54960  0.70960  0.94970  1.0000
  H   H40       1.0  0.95040  0.70960  0.55030  1.0000
  C   C71       1.0  0.36910  0.29770  0.11278  1.0000
  C   C72       1.0  0.13090  0.29770  0.38722  1.0000
  C   C73       1.0  0.63090  0.70230  0.88722  1.0000
  C   C74       1.0  0.86910  0.70230  0.61278  1.0000
  H   H41       1.0  0.37480  0.39380  0.12480  1.0000
  H   H42       1.0  0.12520  0.39380  0.37520  1.0000
  H   H43       1.0  0.62520  0.60620  0.87520  1.0000
  H   H44       1.0  0.87480  0.60620  0.62480  1.0000
  C   C75       1.0  0.31380  0.21870  0.13935  1.0000
  C   C76       1.0  0.18620  0.21870  0.36065  1.0000
  C   C77       1.0  0.68620  0.78130  0.86065  1.0000
  C   C78       1.0  0.81380  0.78130  0.63935  1.0000
  C   C79       1.0  0.30760  0.07560  0.11900  1.0000
  C   C80       1.0  0.19240  0.07560  0.38100  1.0000
  C   C81       1.0  0.69240  0.92440  0.88100  1.0000
  C   C82       1.0  0.80760  0.92440  0.61900  1.0000
  H   H45       1.0  0.27010  0.01930  0.13430  1.0000
  H   H46       1.0  0.22990  0.01930  0.36570  1.0000
  H   H47       1.0  0.72990  0.98070  0.86570  1.0000
  H   H48       1.0  0.77010  0.98070  0.63430  1.0000
  C   C83       1.0  0.35780  0.01840  0.07560  1.0000
  C   C84       1.0  0.14220  0.01840  0.42440  1.0000
  C   C85       1.0  0.64220  0.98160  0.92440  1.0000
  C   C86       1.0  0.85780  0.98160  0.57560  1.0000
  H   H49       1.0  0.35370  0.92240  0.06280  1.0000
  H   H50       1.0  0.14630  0.92240  0.43720  1.0000
  H   H51       1.0  0.64630  0.07760  0.93720  1.0000
  H   H52       1.0  0.85370  0.07760  0.56280  1.0000
  C   C87       1.0  0.26080  0.28910  0.18630  1.0000
  C   C88       1.0  0.23920  0.28910  0.31370  1.0000
  C   C89       1.0  0.73920  0.71090  0.81370  1.0000
  C   C90       1.0  0.76080  0.71090  0.68630  1.0000
  H   H53       1.0  0.27830  0.38530  0.19730  1.0000
  H   H54       1.0  0.22170  0.38530  0.30270  1.0000
  H   H55       1.0  0.72170  0.61470  0.80270  1.0000
  H   H56       1.0  0.77830  0.61470  0.69730  1.0000
  H   H57       1.0  0.21310  0.29710  0.15670  1.0000
  H   H58       1.0  0.28690  0.29710  0.34330  1.0000
  H   H59       1.0  0.78690  0.70290  0.84330  1.0000
  H   H60       1.0  0.71310  0.70290  0.65670  1.0000
  C   C91       1.0  0.25000  0.22650  0.25000  1.0000
  C   C92       1.0  0.75000  0.77350  0.75000  1.0000
  H   H61       1.0  0.20810  0.16490  0.23900  1.0000
  H   H62       1.0  0.29190  0.16490  0.26100  1.0000
  H   H63       1.0  0.79190  0.83510  0.76100  1.0000
  H   H64       1.0  0.70810  0.83510  0.73900  1.0000
  N   N1        1.0  0.57675  0.09710  0.43588  1.0000
  N   N2        1.0  0.92325  0.09710  0.06412  1.0000
  N   N3        1.0  0.42325  0.90290  0.56412  1.0000
  N   N4        1.0  0.07675  0.90290  0.93588  1.0000
  N   N5        1.0  0.41220  0.09520  0.05129  1.0000
  N   N6        1.0  0.08780  0.09520  0.44871  1.0000
  N   N7        1.0  0.58780  0.90480  0.94871  1.0000
  N   N8        1.0  0.91220  0.90480  0.55129  1.0000
  O   O1        1.0  0.52933  0.15413  0.58399  1.0000
  O   O2        1.0  0.97067  0.15413  0.91601  1.0000
  O   O3        1.0  0.47067  0.84587  0.41601  1.0000
  O   O4        1.0  0.02933  0.84587  0.08399  1.0000
  O   O5        1.0  0.58762  0.87068  0.55219  1.0000
  O   O6        1.0  0.91238  0.87068  0.94781  1.0000
  O   O7        1.0  0.41238  0.12932  0.44781  1.0000
  O   O8        1.0  0.08762  0.12932  0.05219  1.0000
  H   H65       1.0  0.60140  0.93290  0.58480  1.0000
  H   H66       1.0  0.89860  0.93290  0.91520  1.0000
  H   H67       1.0  0.39860  0.06710  0.41520  1.0000
  H   H68       1.0  0.10140  0.06710  0.08480  1.0000
  H   H69       1.0  0.57930  0.79300  0.57380  1.0000
  H   H70       1.0  0.92070  0.79300  0.92620  1.0000
  H   H71       1.0  0.42070  0.20700  0.42620  1.0000
  H   H72       1.0  0.07930  0.20700  0.07380  1.0000
  O   O9        1.0  0.63355  0.08630  0.65330  1.0000
  O   O10       1.0  0.86645  0.08630  0.84670  1.0000
  O   O11       1.0  0.36645  0.91370  0.34670  1.0000
  O   O12       1.0  0.13355  0.91370  0.15330  1.0000
  O   O13       1.0  0.41423  0.89610  0.92837  1.0000
  O   O14       1.0  0.08577  0.89610  0.57163  1.0000
  O   O15       1.0  0.58577  0.10390  0.07163  1.0000
  O   O16       1.0  0.91423  0.10390  0.42837  1.0000
  H   H73       1.0  0.42190  0.82540  0.90110  1.0000
  H   H74       1.0  0.07810  0.82540  0.59890  1.0000
  H   H75       1.0  0.57810  0.17460  0.09890  1.0000
  H   H76       1.0  0.92190  0.17460  0.40110  1.0000
  H   H77       1.0  0.41110  0.97110  0.90200  1.0000
  H   H78       1.0  0.08890  0.97110  0.59800  1.0000
  H   H79       1.0  0.58890  0.02890  0.09800  1.0000
  H   H80       1.0  0.91110  0.02890  0.40200  1.0000
  O   O17       1.0  0.50596  0.17350  0.92982  1.0000
  O   O18       1.0  0.99404  0.17350  0.57018  1.0000
  O   O19       1.0  0.49404  0.82650  0.07018  1.0000
  O   O20       1.0  0.00596  0.82650  0.42982  1.0000
  O   O21       1.0  0.40351  0.13640  0.85199  1.0000
  O   O22       1.0  0.09649  0.13640  0.64801  1.0000
  O   O23       1.0  0.59649  0.86360  0.14801  1.0000
  O   O24       1.0  0.90351  0.86360  0.35199  1.0000
  O   O25       1.0  0.43122  0.45580  0.91127  1.0000
  O   O26       1.0  0.06878  0.45580  0.58873  1.0000
  O   O27       1.0  0.56878  0.54420  0.08873  1.0000
  O   O28       1.0  0.93122  0.54420  0.41127  1.0000
  H   H81       1.0  0.41880  0.51320  0.94380  1.0000
  H   H82       1.0  0.08120  0.51320  0.55620  1.0000
  H   H83       1.0  0.58120  0.48680  0.05620  1.0000
  H   H84       1.0  0.91880  0.48680  0.44380  1.0000
  O   O29       1.0  0.44036  0.64729  0.84204  1.0000
  O   O30       1.0  0.05964  0.64729  0.65796  1.0000
  O   O31       1.0  0.55964  0.35271  0.15796  1.0000
  O   O32       1.0  0.94036  0.35271  0.34204  1.0000
  O   O33       1.0  0.55892  0.61480  0.61460  1.0000
  O   O34       1.0  0.94108  0.61480  0.88540  1.0000
  O   O35       1.0  0.44108  0.38520  0.38540  1.0000
  O   O36       1.0  0.05892  0.38520  0.11460  1.0000
  O   O37       1.0  0.62598  0.42610  0.59221  1.0000
  O   O38       1.0  0.87402  0.42610  0.90779  1.0000
  O   O39       1.0  0.37402  0.57390  0.40779  1.0000
  O   O40       1.0  0.12598  0.57390  0.09221  1.0000
