data_image0
_chemical_formula_structural       Cu2C2H2C2H2C2H2C2H2C6H2C2H2C2H2C2H2C4H4C4H4C2H4C4H4C2H4C2H4N4O12
_chemical_formula_sum              "Cu2 C38 H40 N4 O12"
_cell_length_a       9.6255
_cell_length_b       9.9447
_cell_length_c       12.788
_cell_angle_alpha    70.918
_cell_angle_beta     73.714
_cell_angle_gamma    75.645

_space_group_name_H-M_alt    "P 1"
_space_group_IT_number       1

loop_
  _space_group_symop_operation_xyz
  'x, y, z'

loop_
  _atom_site_type_symbol
  _atom_site_label
  _atom_site_symmetry_multiplicity
  _atom_site_fract_x
  _atom_site_fract_y
  _atom_site_fract_z
  _atom_site_occupancy
  Cu  Cu1       1.0  0.20661  0.33711  0.16535  1.0000
  Cu  Cu2       1.0  0.79339  0.66289  0.83465  1.0000
  C   C1        1.0  0.21150  0.56150  0.94080  1.0000
  C   C2        1.0  0.78850  0.43850  0.05920  1.0000
  H   H1        1.0  0.15430  0.50910  0.92680  1.0000
  H   H2        1.0  0.84570  0.49090  0.07320  1.0000
  C   C3        1.0  0.24820  0.68480  0.85970  1.0000
  C   C4        1.0  0.75180  0.31520  0.14030  1.0000
  H   H3        1.0  0.21630  0.71540  0.79210  1.0000
  H   H4        1.0  0.78370  0.28460  0.20790  1.0000
  C   C5        1.0  0.33280  0.76230  0.88000  1.0000
  C   C6        1.0  0.66720  0.23770  0.12000  1.0000
  H   H5        1.0  0.36030  0.84540  0.82580  1.0000
  H   H6        1.0  0.63970  0.15460  0.17420  1.0000
  C   C7        1.0  0.37660  0.71530  0.98240  1.0000
  C   C8        1.0  0.62340  0.28470  0.01760  1.0000
  H   H7        1.0  0.43300  0.76710  0.99790  1.0000
  H   H8        1.0  0.56700  0.23290  0.00210  1.0000
  C   C9        1.0  0.33560  0.59050  0.06121  1.0000
  C   C10       1.0  0.66440  0.40950  0.93879  1.0000
  C   C11       1.0  0.37450  0.53000  0.17349  1.0000
  C   C12       1.0  0.62550  0.47000  0.82651  1.0000
  C   C13       1.0  0.44960  0.59550  0.21490  1.0000
  C   C14       1.0  0.55040  0.40450  0.78510  1.0000
  H   H9        1.0  0.47940  0.68300  0.17170  1.0000
  H   H10       1.0  0.52060  0.31700  0.82830  1.0000
  C   C15       1.0  0.47990  0.52980  0.32110  1.0000
  C   C16       1.0  0.52010  0.47020  0.67890  1.0000
  H   H11       1.0  0.52990  0.57300  0.35030  1.0000
  H   H12       1.0  0.47010  0.42700  0.64970  1.0000
  C   C17       1.0  0.43580  0.40040  0.38310  1.0000
  C   C18       1.0  0.56420  0.59960  0.61690  1.0000
  H   H13       1.0  0.45620  0.35420  0.45450  1.0000
  H   H14       1.0  0.54380  0.64580  0.54550  1.0000
  C   C19       1.0  0.36060  0.34000  0.33759  1.0000
  C   C20       1.0  0.63940  0.66000  0.66241  1.0000
  H   H15       1.0  0.33080  0.25220  0.37940  1.0000
  H   H16       1.0  0.66920  0.74780  0.62060  1.0000
  C   C21       1.0  0.93750  0.49670  0.32814  1.0000
  C   C22       1.0  0.06250  0.50330  0.67186  1.0000
  C   C23       1.0  0.90350  0.63150  0.36650  1.0000
  C   C24       1.0  0.09650  0.36850  0.63350  1.0000
  H   H17       1.0  0.87240  0.60620  0.44850  1.0000
  H   H18       1.0  0.12760  0.39380  0.55150  1.0000
  H   H19       1.0  0.82270  0.69690  0.33530  1.0000
  H   H20       1.0  0.17730  0.30310  0.66470  1.0000
  C   C25       1.0  0.19290  0.20330  0.01481  1.0000
  C   C26       1.0  0.80710  0.79670  0.98519  1.0000
  C   C27       1.0  0.11660  0.15290  0.94993  1.0000
  C   C28       1.0  0.88340  0.84710  0.05007  1.0000
  H   H21       1.0  0.18740  0.12390  0.88710  1.0000
  H   H22       1.0  0.81260  0.87610  0.11290  1.0000
  H   H23       1.0  0.04310  0.23120  0.91950  1.0000
  H   H24       1.0  0.95690  0.76880  0.08050  1.0000
  C   C29       1.0  0.04330  0.02530  0.02923  1.0000
  C   C30       1.0  0.95670  0.97470  0.97077  1.0000
  H   H25       1.0  0.11690  0.94810  0.05840  1.0000
  H   H26       1.0  0.88310  0.05190  0.94160  1.0000
  H   H27       1.0  0.97310  0.05500  0.09100  1.0000
  H   H28       1.0  0.02690  0.94500  0.90900  1.0000
  C   C31       1.0  0.09010  0.08690  0.32215  1.0000
  C   C32       1.0  0.90990  0.91310  0.67785  1.0000
  C   C33       1.0  0.12550  0.92890  0.32520  1.0000
  C   C34       1.0  0.87450  0.07110  0.67480  1.0000
  H   H29       1.0  0.18510  0.87740  0.38080  1.0000
  H   H30       1.0  0.81490  0.12260  0.61920  1.0000
  H   H31       1.0  0.18440  0.92000  0.25180  1.0000
  H   H32       1.0  0.81560  0.08000  0.74820  1.0000
  C   C35       1.0  0.99350  0.85570  0.35355  1.0000
  C   C36       1.0  0.00650  0.14430  0.64645  1.0000
  H   H33       1.0  0.92310  0.91710  0.30900  1.0000
  H   H34       1.0  0.07690  0.08290  0.69100  1.0000
  H   H35       1.0  0.94660  0.84390  0.43300  1.0000
  H   H36       1.0  0.05340  0.15610  0.56700  1.0000
  C   C37       1.0  0.03510  0.70850  0.33018  1.0000
  C   C38       1.0  0.96490  0.29150  0.66982  1.0000
  H   H37       1.0  0.08020  0.72000  0.25140  1.0000
  H   H38       1.0  0.91980  0.28000  0.74860  1.0000
  H   H39       1.0  0.10320  0.64660  0.37540  1.0000
  H   H40       1.0  0.89680  0.35340  0.62460  1.0000
  N   N1        1.0  0.25501  0.51345  0.03952  1.0000
  N   N2        1.0  0.74499  0.48655  0.96048  1.0000
  N   N3        1.0  0.32915  0.40404  0.23510  1.0000
  N   N4        1.0  0.67085  0.59596  0.76490  1.0000
  O   O1        1.0  0.99740  0.49353  0.23180  1.0000
  O   O2        1.0  0.00260  0.50647  0.76820  1.0000
  O   O3        1.0  0.89580  0.38365  0.40715  1.0000
  O   O4        1.0  0.10420  0.61635  0.59285  1.0000
  O   O5        1.0  0.10887  0.27793  0.07957  1.0000
  O   O6        1.0  0.89113  0.72207  0.92043  1.0000
  O   O7        1.0  0.32810  0.16930  0.00618  1.0000
  O   O8        1.0  0.67190  0.83070  0.99382  1.0000
  O   O9        1.0  0.19890  0.15437  0.28246  1.0000
  O   O10       1.0  0.80110  0.84563  0.71754  1.0000
  O   O11       1.0  0.96170  0.14284  0.35654  1.0000
  O   O12       1.0  0.03830  0.85716  0.64346  1.0000
