data_image0
_chemical_formula_structural       C16H8C8H8C8H8C8H8C8H8C8O16C4O8C12H8C8H8C4H4Na4O4H8
_chemical_formula_sum              "C84 H68 O28 Na4"
_cell_length_a       16.316
_cell_length_b       32.4817
_cell_length_c       6.6248
_cell_angle_alpha    90
_cell_angle_beta     113.105
_cell_angle_gamma    90

_space_group_name_H-M_alt    "P 1"
_space_group_IT_number       1

loop_
  _space_group_symop_operation_xyz
  'x, y, z'

loop_
  _atom_site_type_symbol
  _atom_site_label
  _atom_site_symmetry_multiplicity
  _atom_site_fract_x
  _atom_site_fract_y
  _atom_site_fract_z
  _atom_site_occupancy
  C   C1        1.0  0.23281  0.11307  0.49590  1.0000
  C   C2        1.0  0.73281  0.61307  0.49590  1.0000
  C   C3        1.0  0.76719  0.11307  0.00410  1.0000
  C   C4        1.0  0.26719  0.61307  0.00410  1.0000
  C   C5        1.0  0.76719  0.88693  0.50410  1.0000
  C   C6        1.0  0.26719  0.38693  0.50410  1.0000
  C   C7        1.0  0.23281  0.88693  0.99590  1.0000
  C   C8        1.0  0.73281  0.38693  0.99590  1.0000
  C   C9        1.0  0.30130  0.09615  0.44780  1.0000
  C   C10       1.0  0.80130  0.59615  0.44780  1.0000
  C   C11       1.0  0.69870  0.09615  0.05220  1.0000
  C   C12       1.0  0.19870  0.59615  0.05220  1.0000
  C   C13       1.0  0.69870  0.90385  0.55220  1.0000
  C   C14       1.0  0.19870  0.40385  0.55220  1.0000
  C   C15       1.0  0.30130  0.90385  0.94780  1.0000
  C   C16       1.0  0.80130  0.40385  0.94780  1.0000
  H   H1        1.0  0.33960  0.11320  0.41310  1.0000
  H   H2        1.0  0.83960  0.61320  0.41310  1.0000
  H   H3        1.0  0.66040  0.11320  0.08690  1.0000
  H   H4        1.0  0.16040  0.61320  0.08690  1.0000
  H   H5        1.0  0.66040  0.88680  0.58690  1.0000
  H   H6        1.0  0.16040  0.38680  0.58690  1.0000
  H   H7        1.0  0.33960  0.88680  0.91310  1.0000
  H   H8        1.0  0.83960  0.38680  0.91310  1.0000
  C   C17       1.0  0.31257  0.05372  0.45160  1.0000
  C   C18       1.0  0.81257  0.55372  0.45160  1.0000
  C   C19       1.0  0.68743  0.05372  0.04840  1.0000
  C   C20       1.0  0.18743  0.55372  0.04840  1.0000
  C   C21       1.0  0.68743  0.94628  0.54840  1.0000
  C   C22       1.0  0.18743  0.44628  0.54840  1.0000
  C   C23       1.0  0.31257  0.94628  0.95160  1.0000
  C   C24       1.0  0.81257  0.44628  0.95160  1.0000
  H   H9        1.0  0.35760  0.04260  0.41560  1.0000
  H   H10       1.0  0.85760  0.54260  0.41560  1.0000
  H   H11       1.0  0.64240  0.04260  0.08440  1.0000
  H   H12       1.0  0.14240  0.54260  0.08440  1.0000
  H   H13       1.0  0.64240  0.95740  0.58440  1.0000
  H   H14       1.0  0.14240  0.45740  0.58440  1.0000
  H   H15       1.0  0.35760  0.95740  0.91560  1.0000
  H   H16       1.0  0.85760  0.45740  0.91560  1.0000
  C   C25       1.0  0.25819  0.02817  0.50770  1.0000
  C   C26       1.0  0.75819  0.52817  0.50770  1.0000
  C   C27       1.0  0.74181  0.02817  0.99230  1.0000
  C   C28       1.0  0.24181  0.52817  0.99230  1.0000
  C   C29       1.0  0.74181  0.97183  0.49230  1.0000
  C   C30       1.0  0.24181  0.47183  0.49230  1.0000
  C   C31       1.0  0.25819  0.97183  0.00770  1.0000
  C   C32       1.0  0.75819  0.47183  0.00770  1.0000
  H   H17       1.0  0.26690  0.99980  0.51240  1.0000
  H   H18       1.0  0.76690  0.49980  0.51240  1.0000
  H   H19       1.0  0.73310  0.99980  0.98760  1.0000
  H   H20       1.0  0.23310  0.49980  0.98760  1.0000
  H   H21       1.0  0.73310  0.00020  0.48760  1.0000
  H   H22       1.0  0.23310  0.50020  0.48760  1.0000
  H   H23       1.0  0.26690  0.00020  0.01240  1.0000
  H   H24       1.0  0.76690  0.50020  0.01240  1.0000
  C   C33       1.0  0.19121  0.04441  0.55670  1.0000
  C   C34       1.0  0.69121  0.54441  0.55670  1.0000
  C   C35       1.0  0.80879  0.04441  0.94330  1.0000
  C   C36       1.0  0.30879  0.54441  0.94330  1.0000
  C   C37       1.0  0.80879  0.95559  0.44330  1.0000
  C   C38       1.0  0.30879  0.45559  0.44330  1.0000
  C   C39       1.0  0.19121  0.95559  0.05670  1.0000
  C   C40       1.0  0.69121  0.45559  0.05670  1.0000
  H   H25       1.0  0.15430  0.02710  0.59510  1.0000
  H   H26       1.0  0.65430  0.52710  0.59510  1.0000
  H   H27       1.0  0.84570  0.02710  0.90490  1.0000
  H   H28       1.0  0.34570  0.52710  0.90490  1.0000
  H   H29       1.0  0.84570  0.97290  0.40490  1.0000
  H   H30       1.0  0.34570  0.47290  0.40490  1.0000
  H   H31       1.0  0.15430  0.97290  0.09510  1.0000
  H   H32       1.0  0.65430  0.47290  0.09510  1.0000
  C   C41       1.0  0.17777  0.08669  0.54980  1.0000
  C   C42       1.0  0.67777  0.58669  0.54980  1.0000
  C   C43       1.0  0.82223  0.08669  0.95020  1.0000
  C   C44       1.0  0.32223  0.58669  0.95020  1.0000
  C   C45       1.0  0.82223  0.91331  0.45020  1.0000
  C   C46       1.0  0.32223  0.41331  0.45020  1.0000
  C   C47       1.0  0.17777  0.91331  0.04980  1.0000
  C   C48       1.0  0.67777  0.41331  0.04980  1.0000
  H   H33       1.0  0.13130  0.09740  0.58160  1.0000
  H   H34       1.0  0.63130  0.59740  0.58160  1.0000
  H   H35       1.0  0.86870  0.09740  0.91840  1.0000
  H   H36       1.0  0.36870  0.59740  0.91840  1.0000
  H   H37       1.0  0.86870  0.90260  0.41840  1.0000
  H   H38       1.0  0.36870  0.40260  0.41840  1.0000
  H   H39       1.0  0.13130  0.90260  0.08160  1.0000
  H   H40       1.0  0.63130  0.40260  0.08160  1.0000
  C   C49       1.0  0.21735  0.15877  0.48780  1.0000
  C   C50       1.0  0.71735  0.65877  0.48780  1.0000
  C   C51       1.0  0.78265  0.15877  0.01220  1.0000
  C   C52       1.0  0.28265  0.65877  0.01220  1.0000
  C   C53       1.0  0.78265  0.84123  0.51220  1.0000
  C   C54       1.0  0.28265  0.34123  0.51220  1.0000
  C   C55       1.0  0.21735  0.84123  0.98780  1.0000
  C   C56       1.0  0.71735  0.34123  0.98780  1.0000
  O   O1        1.0  0.14649  0.17179  0.49900  1.0000
  O   O2        1.0  0.64649  0.67179  0.49900  1.0000
  O   O3        1.0  0.85351  0.17179  0.00100  1.0000
  O   O4        1.0  0.35351  0.67179  0.00100  1.0000
  O   O5        1.0  0.85351  0.82821  0.50100  1.0000
  O   O6        1.0  0.35351  0.32821  0.50100  1.0000
  O   O7        1.0  0.14649  0.82821  0.99900  1.0000
  O   O8        1.0  0.64649  0.32821  0.99900  1.0000
  O   O9        1.0  0.27630  0.18167  0.47020  1.0000
  O   O10       1.0  0.77630  0.68167  0.47020  1.0000
  O   O11       1.0  0.72370  0.18167  0.02980  1.0000
  O   O12       1.0  0.22370  0.68167  0.02980  1.0000
  O   O13       1.0  0.72370  0.81833  0.52980  1.0000
  O   O14       1.0  0.22370  0.31833  0.52980  1.0000
  O   O15       1.0  0.27630  0.81833  0.97020  1.0000
  O   O16       1.0  0.77630  0.31833  0.97020  1.0000
  C   C57       1.0  0.00000  0.17432  0.75000  1.0000
  C   C58       1.0  0.50000  0.67432  0.75000  1.0000
  C   C59       1.0  0.00000  0.82568  0.25000  1.0000
  C   C60       1.0  0.50000  0.32568  0.25000  1.0000
  O   O17       1.0  0.03477  0.19214  0.93189  1.0000
  O   O18       1.0  0.53477  0.69214  0.93189  1.0000
  O   O19       1.0  0.96523  0.19214  0.56811  1.0000
  O   O20       1.0  0.46523  0.69214  0.56811  1.0000
  O   O21       1.0  0.96523  0.80786  0.06811  1.0000
  O   O22       1.0  0.46523  0.30786  0.06811  1.0000
  O   O23       1.0  0.03477  0.80786  0.43189  1.0000
  O   O24       1.0  0.53477  0.30786  0.43189  1.0000
  C   C61       1.0  0.00000  0.12751  0.75000  1.0000
  C   C62       1.0  0.50000  0.62751  0.75000  1.0000
  C   C63       1.0  0.00000  0.87249  0.25000  1.0000
  C   C64       1.0  0.50000  0.37249  0.25000  1.0000
  C   C65       1.0  0.05265  0.10588  0.93570  1.0000
  C   C66       1.0  0.55265  0.60588  0.93570  1.0000
  C   C67       1.0  0.94735  0.10588  0.56430  1.0000
  C   C68       1.0  0.44735  0.60588  0.56430  1.0000
  C   C69       1.0  0.94735  0.89412  0.06430  1.0000
  C   C70       1.0  0.44735  0.39412  0.06430  1.0000
  C   C71       1.0  0.05265  0.89412  0.43570  1.0000
  C   C72       1.0  0.55265  0.39412  0.43570  1.0000
  H   H41       1.0  0.08800  0.12000  0.06200  1.0000
  H   H42       1.0  0.58800  0.62000  0.06200  1.0000
  H   H43       1.0  0.91200  0.12000  0.43800  1.0000
  H   H44       1.0  0.41200  0.62000  0.43800  1.0000
  H   H45       1.0  0.91200  0.88000  0.93800  1.0000
  H   H46       1.0  0.41200  0.38000  0.93800  1.0000
  H   H47       1.0  0.08800  0.88000  0.56200  1.0000
  H   H48       1.0  0.58800  0.38000  0.56200  1.0000
  C   C73       1.0  0.05289  0.06303  0.93400  1.0000
  C   C74       1.0  0.55289  0.56303  0.93400  1.0000
  C   C75       1.0  0.94711  0.06303  0.56600  1.0000
  C   C76       1.0  0.44711  0.56303  0.56600  1.0000
  C   C77       1.0  0.94711  0.93697  0.06600  1.0000
  C   C78       1.0  0.44711  0.43697  0.06600  1.0000
  C   C79       1.0  0.05289  0.93697  0.43400  1.0000
  C   C80       1.0  0.55289  0.43697  0.43400  1.0000
  H   H49       1.0  0.08910  0.04860  0.05850  1.0000
  H   H50       1.0  0.58910  0.54860  0.05850  1.0000
  H   H51       1.0  0.91090  0.04860  0.44150  1.0000
  H   H52       1.0  0.41090  0.54860  0.44150  1.0000
  H   H53       1.0  0.91090  0.95140  0.94150  1.0000
  H   H54       1.0  0.41090  0.45140  0.94150  1.0000
  H   H55       1.0  0.08910  0.95140  0.55850  1.0000
  H   H56       1.0  0.58910  0.45140  0.55850  1.0000
  C   C81       1.0  0.00000  0.04196  0.75000  1.0000
  C   C82       1.0  0.50000  0.54196  0.75000  1.0000
  C   C83       1.0  0.00000  0.95804  0.25000  1.0000
  C   C84       1.0  0.50000  0.45804  0.25000  1.0000
  H   H57       1.0  0.00000  0.01330  0.75000  1.0000
  H   H58       1.0  0.50000  0.51330  0.75000  1.0000
  H   H59       1.0  0.00000  0.98670  0.25000  1.0000
  H   H60       1.0  0.50000  0.48670  0.25000  1.0000
  Na  Na1       1.0  0.00000  0.19065  0.25000  1.0000
  Na  Na2       1.0  0.50000  0.69065  0.25000  1.0000
  Na  Na3       1.0  0.00000  0.80935  0.75000  1.0000
  Na  Na4       1.0  0.50000  0.30935  0.75000  1.0000
  O   O25       1.0  0.00000  0.27007  0.25000  1.0000
  O   O26       1.0  0.50000  0.77007  0.25000  1.0000
  O   O27       1.0  0.00000  0.72993  0.75000  1.0000
  O   O28       1.0  0.50000  0.22993  0.75000  1.0000
  H   H61       1.0  0.01080  0.28650  0.15170  1.0000
  H   H62       1.0  0.51080  0.78650  0.15170  1.0000
  H   H63       1.0  0.98920  0.28650  0.34830  1.0000
  H   H64       1.0  0.48920  0.78650  0.34830  1.0000
  H   H65       1.0  0.98920  0.71350  0.84830  1.0000
  H   H66       1.0  0.48920  0.21350  0.84830  1.0000
  H   H67       1.0  0.01080  0.71350  0.65170  1.0000
  H   H68       1.0  0.51080  0.21350  0.65170  1.0000
