data_image0
_chemical_formula_structural       Gd4O36C12H4C4H4C4H4C4H4C24H4C4H4C4H4C4H4C4H8
_chemical_formula_sum              "Gd4 O36 C64 H40"
_cell_length_a       13.1671
_cell_length_b       13.7336
_cell_length_c       11.31
_cell_angle_alpha    90
_cell_angle_beta     115.411
_cell_angle_gamma    90

_space_group_name_H-M_alt    "P 1"
_space_group_IT_number       1

loop_
  _space_group_symop_operation_xyz
  'x, y, z'

loop_
  _atom_site_type_symbol
  _atom_site_label
  _atom_site_symmetry_multiplicity
  _atom_site_fract_x
  _atom_site_fract_y
  _atom_site_fract_z
  _atom_site_occupancy
  Gd  Gd1       1.0  0.89667  0.11376  0.53589  1.0000
  Gd  Gd2       1.0  0.10333  0.61376  0.96411  1.0000
  Gd  Gd3       1.0  0.10333  0.88624  0.46411  1.0000
  Gd  Gd4       1.0  0.89667  0.38624  0.03589  1.0000
  O   O1        1.0  0.93570  0.94750  0.56770  1.0000
  O   O2        1.0  0.06430  0.44750  0.93230  1.0000
  O   O3        1.0  0.06430  0.05250  0.43230  1.0000
  O   O4        1.0  0.93570  0.55250  0.06770  1.0000
  O   O5        1.0  0.71200  0.07130  0.52700  1.0000
  O   O6        1.0  0.28800  0.57130  0.97300  1.0000
  O   O7        1.0  0.28800  0.92870  0.47300  1.0000
  O   O8        1.0  0.71200  0.42870  0.02700  1.0000
  O   O9        1.0  0.79950  0.05230  0.31760  1.0000
  O   O10       1.0  0.20050  0.55230  0.18240  1.0000
  O   O11       1.0  0.20050  0.94770  0.68240  1.0000
  O   O12       1.0  0.79950  0.44770  0.81760  1.0000
  O   O13       1.0  0.99060  0.79920  0.55410  1.0000
  O   O14       1.0  0.00940  0.29920  0.94590  1.0000
  O   O15       1.0  0.00940  0.20080  0.44590  1.0000
  O   O16       1.0  0.99060  0.70080  0.05410  1.0000
  O   O17       1.0  0.99600  0.75467  0.81480  1.0000
  O   O18       1.0  0.00400  0.25467  0.68520  1.0000
  O   O19       1.0  0.00400  0.24533  0.18520  1.0000
  O   O20       1.0  0.99600  0.74533  0.31480  1.0000
  O   O21       1.0  0.84680  0.10590  0.72040  1.0000
  O   O22       1.0  0.15320  0.60590  0.77960  1.0000
  O   O23       1.0  0.15320  0.89410  0.27960  1.0000
  O   O24       1.0  0.84680  0.39410  0.22040  1.0000
  O   O25       1.0  0.79100  0.25090  0.93810  1.0000
  O   O26       1.0  0.20900  0.75090  0.56190  1.0000
  O   O27       1.0  0.20900  0.74910  0.06190  1.0000
  O   O28       1.0  0.79100  0.24910  0.43810  1.0000
  O   O29       1.0  0.91740  0.60950  0.77950  1.0000
  O   O30       1.0  0.08260  0.10950  0.72050  1.0000
  O   O31       1.0  0.08260  0.39050  0.22050  1.0000
  O   O32       1.0  0.91740  0.89050  0.27950  1.0000
  O   O33       1.0  0.69160  0.28360  0.72490  1.0000
  O   O34       1.0  0.30840  0.78360  0.77510  1.0000
  O   O35       1.0  0.30840  0.71640  0.27510  1.0000
  O   O36       1.0  0.69160  0.21640  0.22490  1.0000
  C   C1        1.0  0.91480  0.69950  0.75100  1.0000
  C   C2        1.0  0.08520  0.19950  0.74900  1.0000
  C   C3        1.0  0.08520  0.30050  0.24900  1.0000
  C   C4        1.0  0.91480  0.80050  0.25100  1.0000
  C   C5        1.0  0.81060  0.73780  0.64130  1.0000
  C   C6        1.0  0.18940  0.23780  0.85870  1.0000
  C   C7        1.0  0.18940  0.26220  0.35870  1.0000
  C   C8        1.0  0.81060  0.76220  0.14130  1.0000
  C   C9        1.0  0.70750  0.69580  0.61550  1.0000
  C   C10       1.0  0.29250  0.19580  0.88450  1.0000
  C   C11       1.0  0.29250  0.30420  0.38450  1.0000
  C   C12       1.0  0.70750  0.80420  0.11550  1.0000
  H   H1        1.0  0.70410  0.64410  0.66680  1.0000
  H   H2        1.0  0.29590  0.14410  0.83320  1.0000
  H   H3        1.0  0.29590  0.35590  0.33320  1.0000
  H   H4        1.0  0.70410  0.85590  0.16680  1.0000
  C   C13       1.0  0.61110  0.72900  0.51640  1.0000
  C   C14       1.0  0.38890  0.22900  0.98360  1.0000
  C   C15       1.0  0.38890  0.27100  0.48360  1.0000
  C   C16       1.0  0.61110  0.77100  0.01640  1.0000
  H   H5        1.0  0.54280  0.69960  0.50060  1.0000
  H   H6        1.0  0.45720  0.19960  0.99940  1.0000
  H   H7        1.0  0.45720  0.30040  0.49940  1.0000
  H   H8        1.0  0.54280  0.80040  0.00060  1.0000
  C   C17       1.0  0.61390  0.80570  0.43920  1.0000
  C   C18       1.0  0.38610  0.30570  0.06080  1.0000
  C   C19       1.0  0.38610  0.19430  0.56080  1.0000
  C   C20       1.0  0.61390  0.69430  0.93920  1.0000
  H   H9        1.0  0.54770  0.82800  0.37170  1.0000
  H   H10       1.0  0.45230  0.32800  0.12830  1.0000
  H   H11       1.0  0.45230  0.17200  0.62830  1.0000
  H   H12       1.0  0.54770  0.67200  0.87170  1.0000
  C   C21       1.0  0.71480  0.84930  0.46220  1.0000
  C   C22       1.0  0.28520  0.34930  0.03780  1.0000
  C   C23       1.0  0.28520  0.15070  0.53780  1.0000
  C   C24       1.0  0.71480  0.65070  0.96220  1.0000
  H   H13       1.0  0.71610  0.90130  0.41030  1.0000
  H   H14       1.0  0.28390  0.40130  0.08970  1.0000
  H   H15       1.0  0.28390  0.09870  0.58970  1.0000
  H   H16       1.0  0.71610  0.59870  0.91030  1.0000
  C   C25       1.0  0.81500  0.81660  0.56200  1.0000
  C   C26       1.0  0.18500  0.31660  0.93800  1.0000
  C   C27       1.0  0.18500  0.18340  0.43800  1.0000
  C   C28       1.0  0.81500  0.68340  0.06200  1.0000
  C   C29       1.0  0.92130  0.85670  0.56550  1.0000
  C   C30       1.0  0.07870  0.35670  0.93450  1.0000
  C   C31       1.0  0.07870  0.14330  0.43450  1.0000
  C   C32       1.0  0.92130  0.64330  0.06550  1.0000
  C   C33       1.0  0.74480  0.08350  0.64680  1.0000
  C   C34       1.0  0.25520  0.58350  0.85320  1.0000
  C   C35       1.0  0.25520  0.91650  0.35320  1.0000
  C   C36       1.0  0.74480  0.41650  0.14680  1.0000
  C   C37       1.0  0.66640  0.06630  0.70980  1.0000
  C   C38       1.0  0.33360  0.56630  0.79020  1.0000
  C   C39       1.0  0.33360  0.93370  0.29020  1.0000
  C   C40       1.0  0.66640  0.43370  0.20980  1.0000
  C   C41       1.0  0.66440  0.13160  0.80420  1.0000
  C   C42       1.0  0.33560  0.63160  0.69580  1.0000
  C   C43       1.0  0.33560  0.86840  0.19580  1.0000
  C   C44       1.0  0.66440  0.36840  0.30420  1.0000
  C   C45       1.0  0.60370  0.10840  0.87380  1.0000
  C   C46       1.0  0.39630  0.60840  0.62620  1.0000
  C   C47       1.0  0.39630  0.89160  0.12620  1.0000
  C   C48       1.0  0.60370  0.39160  0.37380  1.0000
  H   H17       1.0  0.60590  0.14940  0.94020  1.0000
  H   H18       1.0  0.39410  0.64940  0.55980  1.0000
  H   H19       1.0  0.39410  0.85060  0.05980  1.0000
  H   H20       1.0  0.60590  0.35060  0.44020  1.0000
  C   C49       1.0  0.53980  0.02460  0.84570  1.0000
  C   C50       1.0  0.46020  0.52460  0.65430  1.0000
  C   C51       1.0  0.46020  0.97540  0.15430  1.0000
  C   C52       1.0  0.53980  0.47540  0.34570  1.0000
  H   H21       1.0  0.49850  0.00990  0.89260  1.0000
  H   H22       1.0  0.50150  0.50990  0.60740  1.0000
  H   H23       1.0  0.50150  0.99010  0.10740  1.0000
  H   H24       1.0  0.49850  0.49010  0.39260  1.0000
  C   C53       1.0  0.53690  0.96280  0.74880  1.0000
  C   C54       1.0  0.46310  0.46280  0.75120  1.0000
  C   C55       1.0  0.46310  0.03720  0.25120  1.0000
  C   C56       1.0  0.53690  0.53720  0.24880  1.0000
  H   H25       1.0  0.49150  0.90770  0.72770  1.0000
  H   H26       1.0  0.50850  0.40770  0.77230  1.0000
  H   H27       1.0  0.50850  0.09230  0.27230  1.0000
  H   H28       1.0  0.49150  0.59230  0.22770  1.0000
  C   C57       1.0  0.60150  0.98290  0.68270  1.0000
  C   C58       1.0  0.39850  0.48290  0.81730  1.0000
  C   C59       1.0  0.39850  0.01710  0.31730  1.0000
  C   C60       1.0  0.60150  0.51710  0.18270  1.0000
  H   H29       1.0  0.60140  0.93980  0.61920  1.0000
  H   H30       1.0  0.39860  0.43980  0.88080  1.0000
  H   H31       1.0  0.39860  0.06020  0.38080  1.0000
  H   H32       1.0  0.60140  0.56020  0.11920  1.0000
  C   C61       1.0  0.72080  0.23050  0.82230  1.0000
  C   C62       1.0  0.27920  0.73050  0.67770  1.0000
  C   C63       1.0  0.27920  0.76950  0.17770  1.0000
  C   C64       1.0  0.72080  0.26950  0.32230  1.0000
  H   H33       1.0  0.76700  0.09700  0.26200  1.0000
  H   H34       1.0  0.23300  0.59700  0.23800  1.0000
  H   H35       1.0  0.23300  0.90300  0.73800  1.0000
  H   H36       1.0  0.76700  0.40300  0.76200  1.0000
  H   H37       1.0  0.82300  0.01100  0.28100  1.0000
  H   H38       1.0  0.17700  0.51100  0.21900  1.0000
  H   H39       1.0  0.17700  0.98900  0.71900  1.0000
  H   H40       1.0  0.82300  0.48900  0.78100  1.0000
