data_image0
_chemical_formula_structural       Cd3N6C2H2CH2CH2CH2CH2C2H2CH2CH2C2HCHC2HCHC3HC5HCHC2HCHCHC8HCHC2HC2HCHC2HCHCHC2HC2HC2HCHCHC2HC2HCHCHCHCHCHCHCHCHCHCHCHO20
_chemical_formula_sum              "Cd3 N6 C70 H52 O20"
_cell_length_a       9.3592
_cell_length_b       15.488
_cell_length_c       16.108
_cell_angle_alpha    78.217
_cell_angle_beta     78.133
_cell_angle_gamma    84.16

_space_group_name_H-M_alt    "P 1"
_space_group_IT_number       1

loop_
  _space_group_symop_operation_xyz
  'x, y, z'

loop_
  _atom_site_type_symbol
  _atom_site_label
  _atom_site_symmetry_multiplicity
  _atom_site_fract_x
  _atom_site_fract_y
  _atom_site_fract_z
  _atom_site_occupancy
  Cd  Cd1       1.0  0.09064  0.71769  0.94480  1.0000
  Cd  Cd2       1.0  0.43905  0.63169  0.87679  1.0000
  Cd  Cd3       1.0  0.84642  0.59800  0.81253  1.0000
  N   N1        1.0  0.94900  0.23170  0.16410  1.0000
  N   N2        1.0  0.98470  0.07790  0.19140  1.0000
  N   N3        1.0  0.97000  0.15540  0.05110  1.0000
  N   N4        1.0  0.89320  0.47080  0.91070  1.0000
  N   N5        1.0  0.95240  0.15300  0.47980  1.0000
  N   N6        1.0  0.05480  0.84340  0.00800  1.0000
  C   C1        1.0  0.46870  0.99730  0.28330  1.0000
  C   C2        1.0  0.39570  0.06440  0.21720  1.0000
  H   H1        1.0  0.34380  0.03410  0.18660  1.0000
  H   H2        1.0  0.32670  0.10490  0.24620  1.0000
  C   C3        1.0  0.56220  0.04320  0.32360  1.0000
  H   H3        1.0  0.59740  0.00210  0.37020  1.0000
  H   H4        1.0  0.64620  0.06490  0.28090  1.0000
  C   C4        1.0  0.34250  0.95720  0.35080  1.0000
  H   H5        1.0  0.28950  0.00180  0.38180  1.0000
  H   H6        1.0  0.27540  0.93440  0.32320  1.0000
  C   C5        1.0  0.56020  0.92840  0.23930  1.0000
  H   H7        1.0  0.64420  0.95450  0.19980  1.0000
  H   H8        1.0  0.59540  0.88190  0.28190  1.0000
  C   C6        1.0  0.56280  0.17420  0.37770  1.0000
  H   H9        1.0  0.61650  0.20910  0.32580  1.0000
  H   H10       1.0  0.63220  0.14270  0.41210  1.0000
  C   C7        1.0  0.45550  0.23350  0.42900  1.0000
  C   C8        1.0  0.54580  0.28730  0.46550  1.0000
  H   H11       1.0  0.59950  0.24880  0.50550  1.0000
  H   H12       1.0  0.61530  0.31950  0.41930  1.0000
  C   C9        1.0  0.35700  0.17580  0.50160  1.0000
  H   H13       1.0  0.29190  0.21170  0.53800  1.0000
  H   H14       1.0  0.29860  0.14160  0.47850  1.0000
  C   C10       1.0  0.35630  0.29110  0.37500  1.0000
  H   H15       1.0  0.30620  0.25540  0.34840  1.0000
  H   H16       1.0  0.28370  0.32430  0.41040  1.0000
  C   C11       1.0  0.38350  0.41050  0.25340  1.0000
  C   C12       1.0  0.47740  0.46950  0.19400  1.0000
  H   H17       1.0  0.57650  0.46560  0.19600  1.0000
  C   C13       1.0  0.39830  0.44690  0.60570  1.0000
  H   H18       1.0  0.30030  0.44970  0.60140  1.0000
  C   C14       1.0  0.40300  0.04630  0.60680  1.0000
  C   C15       1.0  0.26170  0.02650  0.63120  1.0000
  H   H19       1.0  0.19060  0.06320  0.60640  1.0000
  C   C16       1.0  0.22090  0.95250  0.69260  1.0000
  H   H20       1.0  0.12290  0.94010  0.71040  1.0000
  C   C17       1.0  0.47200  0.19050  0.11080  1.0000
  C   C18       1.0  0.30670  0.84360  0.47480  1.0000
  C   C19       1.0  0.16020  0.86180  0.48890  1.0000
  H   H21       1.0  0.11780  0.90540  0.45080  1.0000
  C   C20       1.0  0.98770  0.08110  0.10570  1.0000
  C   C21       1.0  0.96290  0.15430  0.21690  1.0000
  C   C22       1.0  0.94900  0.23000  0.08370  1.0000
  C   C23       1.0  0.92830  0.31300  0.02450  1.0000
  C   C24       1.0  0.92060  0.31440  0.94050  1.0000
  H   H22       1.0  0.93050  0.26210  0.91930  1.0000
  C   C25       1.0  0.91890  0.39350  0.04950  1.0000
  H   H23       1.0  0.92360  0.39550  0.10620  1.0000
  C   C26       1.0  0.95980  0.15470  0.30990  1.0000
  C   C27       1.0  0.95820  0.23370  0.33820  1.0000
  H   H24       1.0  0.95850  0.28750  0.29980  1.0000
  C   C28       1.0  0.95420  0.07750  0.37130  1.0000
  H   H25       1.0  0.95220  0.02290  0.35590  1.0000
  C   C29       1.0  0.01690  0.99810  0.99080  1.0000
  H   H26       1.0  0.00250  0.05120  0.95360  1.0000
  C   C30       1.0  0.00920  0.99900  0.07420  1.0000
  C   C31       1.0  0.03180  0.69400  0.68790  1.0000
  C   C32       1.0  0.12830  0.74810  0.61500  1.0000
  C   C33       1.0  0.73680  0.69470  0.94280  1.0000
  C   C34       1.0  0.66960  0.74560  0.00950  1.0000
  C   C35       1.0  0.21240  0.61050  0.06850  1.0000
  C   C36       1.0  0.27180  0.54110  0.13300  1.0000
  C   C37       1.0  0.23770  0.41860  0.25280  1.0000
  H   H27       1.0  0.17550  0.38080  0.29330  1.0000
  C   C38       1.0  0.18070  0.48230  0.19240  1.0000
  H   H28       1.0  0.08120  0.48590  0.19160  1.0000
  C   C39       1.0  0.32740  0.89730  0.72710  1.0000
  C   C40       1.0  0.53240  0.78830  0.00920  1.0000
  H   H29       1.0  0.48140  0.78410  0.96640  1.0000
  C   C41       1.0  0.37640  0.43810  0.95840  1.0000
  C   C42       1.0  0.73740  0.74960  0.07660  1.0000
  H   H30       1.0  0.82580  0.71750  0.08130  1.0000
  C   C43       1.0  0.47150  0.83620  0.07100  1.0000
  H   H31       1.0  0.37930  0.86480  0.07030  1.0000
  C   C44       1.0  0.28510  0.81750  0.79690  1.0000
  C   C45       1.0  0.90260  0.47050  0.99260  1.0000
  H   H32       1.0  0.89800  0.52400  0.01100  1.0000
  C   C46       1.0  0.03350  0.91650  0.12400  1.0000
  H   H33       1.0  0.03610  0.91190  0.18220  1.0000
  C   C47       1.0  0.05320  0.84340  0.08950  1.0000
  H   H34       1.0  0.06650  0.78940  0.12560  1.0000
  C   C48       1.0  0.54510  0.84230  0.13320  1.0000
  C   C49       1.0  0.67680  0.79980  0.13580  1.0000
  H   H35       1.0  0.72680  0.80480  0.17870  1.0000
  C   C50       1.0  0.41420  0.35160  0.01110  1.0000
  C   C51       1.0  0.27610  0.72990  0.60060  1.0000
  H   H36       1.0  0.31850  0.68510  0.63750  1.0000
  C   C52       1.0  0.63340  0.54140  0.72380  1.0000
  C   C53       1.0  0.95610  0.23070  0.42190  1.0000
  H   H37       1.0  0.95720  0.28320  0.44130  1.0000
  C   C54       1.0  0.47180  0.91320  0.69790  1.0000
  H   H38       1.0  0.54380  0.87280  0.71750  1.0000
  C   C55       1.0  0.51040  0.98920  0.63960  1.0000
  H   H39       1.0  0.60810  0.00220  0.62220  1.0000
  C   C56       1.0  0.50340  0.39290  0.55830  1.0000
  C   C57       1.0  0.44320  0.49440  0.65730  1.0000
  H   H40       1.0  0.37490  0.53090  0.68680  1.0000
  C   C58       1.0  0.58100  0.48990  0.66640  1.0000
  C   C59       1.0  0.36220  0.77970  0.52950  1.0000
  H   H41       1.0  0.46290  0.76750  0.52010  1.0000
  C   C60       1.0  0.07490  0.81500  0.56040  1.0000
  H   H42       1.0  0.97520  0.83050  0.57160  1.0000
  C   C61       1.0  0.89770  0.39500  0.88720  1.0000
  H   H43       1.0  0.88490  0.39480  0.83150  1.0000
  C   C62       1.0  0.95190  0.08330  0.45070  1.0000
  H   H44       1.0  0.94950  0.03040  0.49050  1.0000
  C   C63       1.0  0.04430  0.92440  0.95850  1.0000
  H   H45       1.0  0.05690  0.92890  0.89900  1.0000
  C   C64       1.0  0.34020  0.21260  0.09130  1.0000
  H   H46       1.0  0.26790  0.17220  0.10840  1.0000
  C   C65       1.0  0.31210  0.29400  0.04630  1.0000
  H   H47       1.0  0.21630  0.31080  0.03960  1.0000
  C   C66       1.0  0.53710  0.33300  0.04030  1.0000
  H   H48       1.0  0.60330  0.37660  0.02970  1.0000
  C   C67       1.0  0.57070  0.25100  0.08590  1.0000
  H   H49       1.0  0.66330  0.23770  0.09950  1.0000
  C   C68       1.0  0.68440  0.43480  0.62370  1.0000
  H   H50       1.0  0.78120  0.43120  0.63060  1.0000
  C   C69       1.0  0.42360  0.53270  0.13330  1.0000
  H   H51       1.0  0.48660  0.56990  0.09260  1.0000
  C   C70       1.0  0.64300  0.38530  0.57100  1.0000
  H   H52       1.0  0.71130  0.34670  0.54430  1.0000
  O   O1        1.0  0.47930  0.11400  0.35580  1.0000
  O   O2        1.0  0.19980  0.60570  0.86740  1.0000
  O   O3        1.0  0.51100  0.11150  0.15830  1.0000
  O   O4        1.0  0.40100  0.88840  0.40820  1.0000
  O   O5        1.0  0.44880  0.35020  0.30970  1.0000
  O   O6        1.0  0.44790  0.34690  0.50860  1.0000
  O   O7        1.0  0.45430  0.11870  0.54970  1.0000
  O   O8        1.0  0.47500  0.89310  0.19380  1.0000
  O   O9        1.0  0.90170  0.71890  0.70770  1.0000
  O   O10       1.0  0.08100  0.62390  0.72900  1.0000
  O   O11       1.0  0.15230  0.80510  0.81860  1.0000
  O   O12       1.0  0.07590  0.61960  0.07340  1.0000
  O   O13       1.0  0.29640  0.65640  0.01030  1.0000
  O   O14       1.0  0.65920  0.66500  0.90050  1.0000
  O   O15       1.0  0.47530  0.49310  0.93550  1.0000
  O   O16       1.0  0.25230  0.45240  0.94230  1.0000
  O   O17       1.0  0.75710  0.51970  0.73960  1.0000
  O   O18       1.0  0.87370  0.67910  0.92630  1.0000
  O   O19       1.0  0.38730  0.77280  0.82720  1.0000
  O   O20       1.0  0.54380  0.60250  0.74880  1.0000
