data_image0
_chemical_formula_structural       In8S8O80C48H16C16H16C32H16C16H16C48H16C16H16
_chemical_formula_sum              "In8 S8 O80 C176 H96"
_cell_length_a       14.5653
_cell_length_b       21.0484
_cell_length_c       23.914
_cell_angle_alpha    90
_cell_angle_beta     90
_cell_angle_gamma    90

_space_group_name_H-M_alt    "P 1"
_space_group_IT_number       1

loop_
  _space_group_symop_operation_xyz
  'x, y, z'

loop_
  _atom_site_type_symbol
  _atom_site_label
  _atom_site_symmetry_multiplicity
  _atom_site_fract_x
  _atom_site_fract_y
  _atom_site_fract_z
  _atom_site_occupancy
  In  In1       1.0  0.25000  0.00000  0.32876  1.0000
  In  In2       1.0  0.75000  0.00000  0.17124  1.0000
  In  In3       1.0  0.75000  0.50000  0.32876  1.0000
  In  In4       1.0  0.25000  0.50000  0.17124  1.0000
  In  In5       1.0  0.75000  0.00000  0.67124  1.0000
  In  In6       1.0  0.25000  0.00000  0.82876  1.0000
  In  In7       1.0  0.25000  0.50000  0.67124  1.0000
  In  In8       1.0  0.75000  0.50000  0.82876  1.0000
  S   S1        1.0  0.00000  0.75000  0.08690  1.0000
  S   S2        1.0  0.50000  0.25000  0.08690  1.0000
  S   S3        1.0  0.00000  0.75000  0.41310  1.0000
  S   S4        1.0  0.50000  0.25000  0.41310  1.0000
  S   S5        1.0  0.00000  0.25000  0.91310  1.0000
  S   S6        1.0  0.50000  0.75000  0.91310  1.0000
  S   S7        1.0  0.00000  0.25000  0.58690  1.0000
  S   S8        1.0  0.50000  0.75000  0.58690  1.0000
  O   O1        1.0  0.24740  0.90400  0.28170  1.0000
  O   O2        1.0  0.25260  0.09600  0.28170  1.0000
  O   O3        1.0  0.75260  0.90400  0.21830  1.0000
  O   O4        1.0  0.74740  0.09600  0.21830  1.0000
  O   O5        1.0  0.74740  0.40400  0.28170  1.0000
  O   O6        1.0  0.75260  0.59600  0.28170  1.0000
  O   O7        1.0  0.25260  0.40400  0.21830  1.0000
  O   O8        1.0  0.24740  0.59600  0.21830  1.0000
  O   O9        1.0  0.75260  0.09600  0.71830  1.0000
  O   O10       1.0  0.74740  0.90400  0.71830  1.0000
  O   O11       1.0  0.24740  0.09600  0.78170  1.0000
  O   O12       1.0  0.25260  0.90400  0.78170  1.0000
  O   O13       1.0  0.25260  0.59600  0.71830  1.0000
  O   O14       1.0  0.24740  0.40400  0.71830  1.0000
  O   O15       1.0  0.74740  0.59600  0.78170  1.0000
  O   O16       1.0  0.75260  0.40400  0.78170  1.0000
  O   O17       1.0  0.14300  0.97740  0.26300  1.0000
  O   O18       1.0  0.35700  0.02260  0.26300  1.0000
  O   O19       1.0  0.85700  0.97740  0.23700  1.0000
  O   O20       1.0  0.64300  0.02260  0.23700  1.0000
  O   O21       1.0  0.64300  0.47740  0.26300  1.0000
  O   O22       1.0  0.85700  0.52260  0.26300  1.0000
  O   O23       1.0  0.35700  0.47740  0.23700  1.0000
  O   O24       1.0  0.14300  0.52260  0.23700  1.0000
  O   O25       1.0  0.85700  0.02260  0.73700  1.0000
  O   O26       1.0  0.64300  0.97740  0.73700  1.0000
  O   O27       1.0  0.14300  0.02260  0.76300  1.0000
  O   O28       1.0  0.35700  0.97740  0.76300  1.0000
  O   O29       1.0  0.35700  0.52260  0.73700  1.0000
  O   O30       1.0  0.14300  0.47740  0.73700  1.0000
  O   O31       1.0  0.64300  0.52260  0.76300  1.0000
  O   O32       1.0  0.85700  0.47740  0.76300  1.0000
  O   O33       1.0  0.93230  0.78410  0.05700  1.0000
  O   O34       1.0  0.56770  0.21590  0.05700  1.0000
  O   O35       1.0  0.06770  0.78410  0.44300  1.0000
  O   O36       1.0  0.43230  0.21590  0.44300  1.0000
  O   O37       1.0  0.43230  0.28410  0.05700  1.0000
  O   O38       1.0  0.06770  0.71590  0.05700  1.0000
  O   O39       1.0  0.56770  0.28410  0.44300  1.0000
  O   O40       1.0  0.93230  0.71590  0.44300  1.0000
  O   O41       1.0  0.06770  0.21590  0.94300  1.0000
  O   O42       1.0  0.43230  0.78410  0.94300  1.0000
  O   O43       1.0  0.93230  0.21590  0.55700  1.0000
  O   O44       1.0  0.56770  0.78410  0.55700  1.0000
  O   O45       1.0  0.56770  0.71590  0.94300  1.0000
  O   O46       1.0  0.93230  0.28410  0.94300  1.0000
  O   O47       1.0  0.43230  0.71590  0.55700  1.0000
  O   O48       1.0  0.06770  0.28410  0.55700  1.0000
  O   O49       1.0  0.37390  0.95300  0.37460  1.0000
  O   O50       1.0  0.12610  0.04700  0.37460  1.0000
  O   O51       1.0  0.62610  0.95300  0.12540  1.0000
  O   O52       1.0  0.87390  0.04700  0.12540  1.0000
  O   O53       1.0  0.87390  0.45300  0.37460  1.0000
  O   O54       1.0  0.62610  0.54700  0.37460  1.0000
  O   O55       1.0  0.12610  0.45300  0.12540  1.0000
  O   O56       1.0  0.37390  0.54700  0.12540  1.0000
  O   O57       1.0  0.62610  0.04700  0.62540  1.0000
  O   O58       1.0  0.87390  0.95300  0.62540  1.0000
  O   O59       1.0  0.37390  0.04700  0.87460  1.0000
  O   O60       1.0  0.12610  0.95300  0.87460  1.0000
  O   O61       1.0  0.12610  0.54700  0.62540  1.0000
  O   O62       1.0  0.37390  0.45300  0.62540  1.0000
  O   O63       1.0  0.87390  0.54700  0.87460  1.0000
  O   O64       1.0  0.62610  0.45300  0.87460  1.0000
  O   O65       1.0  0.32980  0.04840  0.39630  1.0000
  O   O66       1.0  0.17020  0.95160  0.39630  1.0000
  O   O67       1.0  0.67020  0.04840  0.10370  1.0000
  O   O68       1.0  0.82980  0.95160  0.10370  1.0000
  O   O69       1.0  0.82980  0.54840  0.39630  1.0000
  O   O70       1.0  0.67020  0.45160  0.39630  1.0000
  O   O71       1.0  0.17020  0.54840  0.10370  1.0000
  O   O72       1.0  0.32980  0.45160  0.10370  1.0000
  O   O73       1.0  0.67020  0.95160  0.60370  1.0000
  O   O74       1.0  0.82980  0.04840  0.60370  1.0000
  O   O75       1.0  0.32980  0.95160  0.89630  1.0000
  O   O76       1.0  0.17020  0.04840  0.89630  1.0000
  O   O77       1.0  0.17020  0.45160  0.60370  1.0000
  O   O78       1.0  0.32980  0.54840  0.60370  1.0000
  O   O79       1.0  0.82980  0.45160  0.89630  1.0000
  O   O80       1.0  0.67020  0.54840  0.89630  1.0000
  C   C1        1.0  0.17670  0.92440  0.25490  1.0000
  C   C2        1.0  0.32330  0.07560  0.25490  1.0000
  C   C3        1.0  0.82330  0.92440  0.24510  1.0000
  C   C4        1.0  0.67670  0.07560  0.24510  1.0000
  C   C5        1.0  0.67670  0.42440  0.25490  1.0000
  C   C6        1.0  0.82330  0.57560  0.25490  1.0000
  C   C7        1.0  0.32330  0.42440  0.24510  1.0000
  C   C8        1.0  0.17670  0.57560  0.24510  1.0000
  C   C9        1.0  0.82330  0.07560  0.74510  1.0000
  C   C10       1.0  0.67670  0.92440  0.74510  1.0000
  C   C11       1.0  0.17670  0.07560  0.75490  1.0000
  C   C12       1.0  0.32330  0.92440  0.75490  1.0000
  C   C13       1.0  0.32330  0.57560  0.74510  1.0000
  C   C14       1.0  0.17670  0.42440  0.74510  1.0000
  C   C15       1.0  0.67670  0.57560  0.75490  1.0000
  C   C16       1.0  0.82330  0.42440  0.75490  1.0000
  C   C17       1.0  0.13560  0.88050  0.21110  1.0000
  C   C18       1.0  0.36440  0.11950  0.21110  1.0000
  C   C19       1.0  0.86440  0.88050  0.28890  1.0000
  C   C20       1.0  0.63560  0.11950  0.28890  1.0000
  C   C21       1.0  0.63560  0.38050  0.21110  1.0000
  C   C22       1.0  0.86440  0.61950  0.21110  1.0000
  C   C23       1.0  0.36440  0.38050  0.28890  1.0000
  C   C24       1.0  0.13560  0.61950  0.28890  1.0000
  C   C25       1.0  0.86440  0.11950  0.78890  1.0000
  C   C26       1.0  0.63560  0.88050  0.78890  1.0000
  C   C27       1.0  0.13560  0.11950  0.71110  1.0000
  C   C28       1.0  0.36440  0.88050  0.71110  1.0000
  C   C29       1.0  0.36440  0.61950  0.78890  1.0000
  C   C30       1.0  0.13560  0.38050  0.78890  1.0000
  C   C31       1.0  0.63560  0.61950  0.71110  1.0000
  C   C32       1.0  0.86440  0.38050  0.71110  1.0000
  C   C33       1.0  0.17390  0.82170  0.19940  1.0000
  C   C34       1.0  0.32610  0.17830  0.19940  1.0000
  C   C35       1.0  0.82610  0.82170  0.30060  1.0000
  C   C36       1.0  0.67390  0.17830  0.30060  1.0000
  C   C37       1.0  0.67390  0.32170  0.19940  1.0000
  C   C38       1.0  0.82610  0.67830  0.19940  1.0000
  C   C39       1.0  0.32610  0.32170  0.30060  1.0000
  C   C40       1.0  0.17390  0.67830  0.30060  1.0000
  C   C41       1.0  0.82610  0.17830  0.80060  1.0000
  C   C42       1.0  0.67390  0.82170  0.80060  1.0000
  C   C43       1.0  0.17390  0.17830  0.69940  1.0000
  C   C44       1.0  0.32610  0.82170  0.69940  1.0000
  C   C45       1.0  0.32610  0.67830  0.80060  1.0000
  C   C46       1.0  0.17390  0.32170  0.80060  1.0000
  C   C47       1.0  0.67390  0.67830  0.69940  1.0000
  C   C48       1.0  0.82610  0.32170  0.69940  1.0000
  H   H1        1.0  0.22820  0.80910  0.21670  1.0000
  H   H2        1.0  0.27180  0.19090  0.21670  1.0000
  H   H3        1.0  0.77180  0.80910  0.28330  1.0000
  H   H4        1.0  0.72820  0.19090  0.28330  1.0000
  H   H5        1.0  0.72820  0.30910  0.21670  1.0000
  H   H6        1.0  0.77180  0.69090  0.21670  1.0000
  H   H7        1.0  0.27180  0.30910  0.28330  1.0000
  H   H8        1.0  0.22820  0.69090  0.28330  1.0000
  H   H9        1.0  0.77180  0.19090  0.78330  1.0000
  H   H10       1.0  0.72820  0.80910  0.78330  1.0000
  H   H11       1.0  0.22820  0.19090  0.71670  1.0000
  H   H12       1.0  0.27180  0.80910  0.71670  1.0000
  H   H13       1.0  0.27180  0.69090  0.78330  1.0000
  H   H14       1.0  0.22820  0.30910  0.78330  1.0000
  H   H15       1.0  0.72820  0.69090  0.71670  1.0000
  H   H16       1.0  0.77180  0.30910  0.71670  1.0000
  C   C49       1.0  0.13020  0.78200  0.16180  1.0000
  C   C50       1.0  0.36980  0.21800  0.16180  1.0000
  C   C51       1.0  0.86980  0.78200  0.33820  1.0000
  C   C52       1.0  0.63020  0.21800  0.33820  1.0000
  C   C53       1.0  0.63020  0.28200  0.16180  1.0000
  C   C54       1.0  0.86980  0.71800  0.16180  1.0000
  C   C55       1.0  0.36980  0.28200  0.33820  1.0000
  C   C56       1.0  0.13020  0.71800  0.33820  1.0000
  C   C57       1.0  0.86980  0.21800  0.83820  1.0000
  C   C58       1.0  0.63020  0.78200  0.83820  1.0000
  C   C59       1.0  0.13020  0.21800  0.66180  1.0000
  C   C60       1.0  0.36980  0.78200  0.66180  1.0000
  C   C61       1.0  0.36980  0.71800  0.83820  1.0000
  C   C62       1.0  0.13020  0.28200  0.83820  1.0000
  C   C63       1.0  0.63020  0.71800  0.66180  1.0000
  C   C64       1.0  0.86980  0.28200  0.66180  1.0000
  H   H17       1.0  0.15250  0.74120  0.15570  1.0000
  H   H18       1.0  0.34750  0.25880  0.15570  1.0000
  H   H19       1.0  0.84750  0.74120  0.34430  1.0000
  H   H20       1.0  0.65250  0.25880  0.34430  1.0000
  H   H21       1.0  0.65250  0.24120  0.15570  1.0000
  H   H22       1.0  0.84750  0.75880  0.15570  1.0000
  H   H23       1.0  0.34750  0.24120  0.34430  1.0000
  H   H24       1.0  0.15250  0.75880  0.34430  1.0000
  H   H25       1.0  0.84750  0.25880  0.84430  1.0000
  H   H26       1.0  0.65250  0.74120  0.84430  1.0000
  H   H27       1.0  0.15250  0.25880  0.65570  1.0000
  H   H28       1.0  0.34750  0.74120  0.65570  1.0000
  H   H29       1.0  0.34750  0.75880  0.84430  1.0000
  H   H30       1.0  0.15250  0.24120  0.84430  1.0000
  H   H31       1.0  0.65250  0.75880  0.65570  1.0000
  H   H32       1.0  0.84750  0.24120  0.65570  1.0000
  C   C65       1.0  0.05430  0.80250  0.13360  1.0000
  C   C66       1.0  0.44570  0.19750  0.13360  1.0000
  C   C67       1.0  0.94570  0.80250  0.36640  1.0000
  C   C68       1.0  0.55430  0.19750  0.36640  1.0000
  C   C69       1.0  0.55430  0.30250  0.13360  1.0000
  C   C70       1.0  0.94570  0.69750  0.13360  1.0000
  C   C71       1.0  0.44570  0.30250  0.36640  1.0000
  C   C72       1.0  0.05430  0.69750  0.36640  1.0000
  C   C73       1.0  0.94570  0.19750  0.86640  1.0000
  C   C74       1.0  0.55430  0.80250  0.86640  1.0000
  C   C75       1.0  0.05430  0.19750  0.63360  1.0000
  C   C76       1.0  0.44570  0.80250  0.63360  1.0000
  C   C77       1.0  0.44570  0.69750  0.86640  1.0000
  C   C78       1.0  0.05430  0.30250  0.86640  1.0000
  C   C79       1.0  0.55430  0.69750  0.63360  1.0000
  C   C80       1.0  0.94570  0.30250  0.63360  1.0000
  C   C81       1.0  0.01510  0.86040  0.14490  1.0000
  C   C82       1.0  0.48490  0.13960  0.14490  1.0000
  C   C83       1.0  0.98490  0.86040  0.35510  1.0000
  C   C84       1.0  0.51510  0.13960  0.35510  1.0000
  C   C85       1.0  0.51510  0.36040  0.14490  1.0000
  C   C86       1.0  0.98490  0.63960  0.14490  1.0000
  C   C87       1.0  0.48490  0.36040  0.35510  1.0000
  C   C88       1.0  0.01510  0.63960  0.35510  1.0000
  C   C89       1.0  0.98490  0.13960  0.85510  1.0000
  C   C90       1.0  0.51510  0.86040  0.85510  1.0000
  C   C91       1.0  0.01510  0.13960  0.64490  1.0000
  C   C92       1.0  0.48490  0.86040  0.64490  1.0000
  C   C93       1.0  0.48490  0.63960  0.85510  1.0000
  C   C94       1.0  0.01510  0.36040  0.85510  1.0000
  C   C95       1.0  0.51510  0.63960  0.64490  1.0000
  C   C96       1.0  0.98490  0.36040  0.64490  1.0000
  H   H33       1.0  0.96260  0.87350  0.12590  1.0000
  H   H34       1.0  0.53740  0.12650  0.12590  1.0000
  H   H35       1.0  0.03740  0.87350  0.37410  1.0000
  H   H36       1.0  0.46260  0.12650  0.37410  1.0000
  H   H37       1.0  0.46260  0.37350  0.12590  1.0000
  H   H38       1.0  0.03740  0.62650  0.12590  1.0000
  H   H39       1.0  0.53740  0.37350  0.37410  1.0000
  H   H40       1.0  0.96260  0.62650  0.37410  1.0000
  H   H41       1.0  0.03740  0.12650  0.87410  1.0000
  H   H42       1.0  0.46260  0.87350  0.87410  1.0000
  H   H43       1.0  0.96260  0.12650  0.62590  1.0000
  H   H44       1.0  0.53740  0.87350  0.62590  1.0000
  H   H45       1.0  0.53740  0.62650  0.87410  1.0000
  H   H46       1.0  0.96260  0.37350  0.87410  1.0000
  H   H47       1.0  0.46260  0.62650  0.62590  1.0000
  H   H48       1.0  0.03740  0.37350  0.62590  1.0000
  C   C97       1.0  0.05470  0.89900  0.18480  1.0000
  C   C98       1.0  0.44530  0.10100  0.18480  1.0000
  C   C99       1.0  0.94530  0.89900  0.31520  1.0000
  C   C100      1.0  0.55470  0.10100  0.31520  1.0000
  C   C101      1.0  0.55470  0.39900  0.18480  1.0000
  C   C102      1.0  0.94530  0.60100  0.18480  1.0000
  C   C103      1.0  0.44530  0.39900  0.31520  1.0000
  C   C104      1.0  0.05470  0.60100  0.31520  1.0000
  C   C105      1.0  0.94530  0.10100  0.81520  1.0000
  C   C106      1.0  0.55470  0.89900  0.81520  1.0000
  C   C107      1.0  0.05470  0.10100  0.68480  1.0000
  C   C108      1.0  0.44530  0.89900  0.68480  1.0000
  C   C109      1.0  0.44530  0.60100  0.81520  1.0000
  C   C110      1.0  0.05470  0.39900  0.81520  1.0000
  C   C111      1.0  0.55470  0.60100  0.68480  1.0000
  C   C112      1.0  0.94530  0.39900  0.68480  1.0000
  H   H49       1.0  0.02720  0.93750  0.19420  1.0000
  H   H50       1.0  0.47280  0.06250  0.19420  1.0000
  H   H51       1.0  0.97280  0.93750  0.30580  1.0000
  H   H52       1.0  0.52720  0.06250  0.30580  1.0000
  H   H53       1.0  0.52720  0.43750  0.19420  1.0000
  H   H54       1.0  0.97280  0.56250  0.19420  1.0000
  H   H55       1.0  0.47280  0.43750  0.30580  1.0000
  H   H56       1.0  0.02720  0.56250  0.30580  1.0000
  H   H57       1.0  0.97280  0.06250  0.80580  1.0000
  H   H58       1.0  0.52720  0.93750  0.80580  1.0000
  H   H59       1.0  0.02720  0.06250  0.69420  1.0000
  H   H60       1.0  0.47280  0.93750  0.69420  1.0000
  H   H61       1.0  0.47280  0.56250  0.80580  1.0000
  H   H62       1.0  0.02720  0.43750  0.80580  1.0000
  H   H63       1.0  0.52720  0.56250  0.69420  1.0000
  H   H64       1.0  0.97280  0.43750  0.69420  1.0000
  C   C113      1.0  0.37840  0.00280  0.40540  1.0000
  C   C114      1.0  0.12160  0.99720  0.40540  1.0000
  C   C115      1.0  0.62160  0.00280  0.09460  1.0000
  C   C116      1.0  0.87840  0.99720  0.09460  1.0000
  C   C117      1.0  0.87840  0.50280  0.40540  1.0000
  C   C118      1.0  0.62160  0.49720  0.40540  1.0000
  C   C119      1.0  0.12160  0.50280  0.09460  1.0000
  C   C120      1.0  0.37840  0.49720  0.09460  1.0000
  C   C121      1.0  0.62160  0.99720  0.59460  1.0000
  C   C122      1.0  0.87840  0.00280  0.59460  1.0000
  C   C123      1.0  0.37840  0.99720  0.90540  1.0000
  C   C124      1.0  0.12160  0.00280  0.90540  1.0000
  C   C125      1.0  0.12160  0.49720  0.59460  1.0000
  C   C126      1.0  0.37840  0.50280  0.59460  1.0000
  C   C127      1.0  0.87840  0.49720  0.90540  1.0000
  C   C128      1.0  0.62160  0.50280  0.90540  1.0000
  C   C129      1.0  0.44230  0.00160  0.45380  1.0000
  C   C130      1.0  0.05770  0.99840  0.45380  1.0000
  C   C131      1.0  0.55770  0.00160  0.04620  1.0000
  C   C132      1.0  0.94230  0.99840  0.04620  1.0000
  C   C133      1.0  0.94230  0.50160  0.45380  1.0000
  C   C134      1.0  0.55770  0.49840  0.45380  1.0000
  C   C135      1.0  0.05770  0.50160  0.04620  1.0000
  C   C136      1.0  0.44230  0.49840  0.04620  1.0000
  C   C137      1.0  0.55770  0.99840  0.54620  1.0000
  C   C138      1.0  0.94230  0.00160  0.54620  1.0000
  C   C139      1.0  0.44230  0.99840  0.95380  1.0000
  C   C140      1.0  0.05770  0.00160  0.95380  1.0000
  C   C141      1.0  0.05770  0.49840  0.54620  1.0000
  C   C142      1.0  0.44230  0.50160  0.54620  1.0000
  C   C143      1.0  0.94230  0.49840  0.95380  1.0000
  C   C144      1.0  0.55770  0.50160  0.95380  1.0000
  C   C145      1.0  0.49410  0.94780  0.46690  1.0000
  C   C146      1.0  0.00590  0.05220  0.46690  1.0000
  C   C147      1.0  0.50590  0.94780  0.03310  1.0000
  C   C148      1.0  0.99410  0.05220  0.03310  1.0000
  C   C149      1.0  0.99410  0.44780  0.46690  1.0000
  C   C150      1.0  0.50590  0.55220  0.46690  1.0000
  C   C151      1.0  0.00590  0.44780  0.03310  1.0000
  C   C152      1.0  0.49410  0.55220  0.03310  1.0000
  C   C153      1.0  0.50590  0.05220  0.53310  1.0000
  C   C154      1.0  0.99410  0.94780  0.53310  1.0000
  C   C155      1.0  0.49410  0.05220  0.96690  1.0000
  C   C156      1.0  0.00590  0.94780  0.96690  1.0000
  C   C157      1.0  0.00590  0.55220  0.53310  1.0000
  C   C158      1.0  0.49410  0.44780  0.53310  1.0000
  C   C159      1.0  0.99410  0.55220  0.96690  1.0000
  C   C160      1.0  0.50590  0.44780  0.96690  1.0000
  H   H65       1.0  0.49040  0.91240  0.44380  1.0000
  H   H66       1.0  0.00960  0.08760  0.44380  1.0000
  H   H67       1.0  0.50960  0.91240  0.05620  1.0000
  H   H68       1.0  0.99040  0.08760  0.05620  1.0000
  H   H69       1.0  0.99040  0.41240  0.44380  1.0000
  H   H70       1.0  0.50960  0.58760  0.44380  1.0000
  H   H71       1.0  0.00960  0.41240  0.05620  1.0000
  H   H72       1.0  0.49040  0.58760  0.05620  1.0000
  H   H73       1.0  0.50960  0.08760  0.55620  1.0000
  H   H74       1.0  0.99040  0.91240  0.55620  1.0000
  H   H75       1.0  0.49040  0.08760  0.94380  1.0000
  H   H76       1.0  0.00960  0.91240  0.94380  1.0000
  H   H77       1.0  0.00960  0.58760  0.55620  1.0000
  H   H78       1.0  0.49040  0.41240  0.55620  1.0000
  H   H79       1.0  0.99040  0.58760  0.94380  1.0000
  H   H80       1.0  0.50960  0.41240  0.94380  1.0000
  C   C161      1.0  0.45040  0.05430  0.48750  1.0000
  C   C162      1.0  0.04960  0.94570  0.48750  1.0000
  C   C163      1.0  0.54960  0.05430  0.01250  1.0000
  C   C164      1.0  0.95040  0.94570  0.01250  1.0000
  C   C165      1.0  0.95040  0.55430  0.48750  1.0000
  C   C166      1.0  0.54960  0.44570  0.48750  1.0000
  C   C167      1.0  0.04960  0.55430  0.01250  1.0000
  C   C168      1.0  0.45040  0.44570  0.01250  1.0000
  C   C169      1.0  0.54960  0.94570  0.51250  1.0000
  C   C170      1.0  0.95040  0.05430  0.51250  1.0000
  C   C171      1.0  0.45040  0.94570  0.98750  1.0000
  C   C172      1.0  0.04960  0.05430  0.98750  1.0000
  C   C173      1.0  0.04960  0.44570  0.51250  1.0000
  C   C174      1.0  0.45040  0.55430  0.51250  1.0000
  C   C175      1.0  0.95040  0.44570  0.98750  1.0000
  C   C176      1.0  0.54960  0.55430  0.98750  1.0000
  H   H81       1.0  0.41790  0.09110  0.47910  1.0000
  H   H82       1.0  0.08210  0.90890  0.47910  1.0000
  H   H83       1.0  0.58210  0.09110  0.02090  1.0000
  H   H84       1.0  0.91790  0.90890  0.02090  1.0000
  H   H85       1.0  0.91790  0.59110  0.47910  1.0000
  H   H86       1.0  0.58210  0.40890  0.47910  1.0000
  H   H87       1.0  0.08210  0.59110  0.02090  1.0000
  H   H88       1.0  0.41790  0.40890  0.02090  1.0000
  H   H89       1.0  0.58210  0.90890  0.52090  1.0000
  H   H90       1.0  0.91790  0.09110  0.52090  1.0000
  H   H91       1.0  0.41790  0.90890  0.97910  1.0000
  H   H92       1.0  0.08210  0.09110  0.97910  1.0000
  H   H93       1.0  0.08210  0.40890  0.52090  1.0000
  H   H94       1.0  0.41790  0.59110  0.52090  1.0000
  H   H95       1.0  0.91790  0.40890  0.97910  1.0000
  H   H96       1.0  0.58210  0.59110  0.97910  1.0000
