data_image0
_chemical_formula_structural       Co4O64N16C16H16C40H8C16H8C16H16C40H8C16H8
_chemical_formula_sum              "Co4 O64 N16 C144 H64"
_cell_length_a       16.464
_cell_length_b       9.18
_cell_length_c       25.501
_cell_angle_alpha    90
_cell_angle_beta     101.94
_cell_angle_gamma    90

_space_group_name_H-M_alt    "P 1"
_space_group_IT_number       1

loop_
  _space_group_symop_operation_xyz
  'x, y, z'

loop_
  _atom_site_type_symbol
  _atom_site_label
  _atom_site_symmetry_multiplicity
  _atom_site_fract_x
  _atom_site_fract_y
  _atom_site_fract_z
  _atom_site_occupancy
  Co  Co1       1.0  0.50000  0.18949  0.75000  1.0000
  Co  Co2       1.0  0.00000  0.68949  0.75000  1.0000
  Co  Co3       1.0  0.50000  0.81051  0.25000  1.0000
  Co  Co4       1.0  0.00000  0.31051  0.25000  1.0000
  O   O1        1.0  0.57699  0.31820  0.72295  1.0000
  O   O2        1.0  0.42301  0.31820  0.77705  1.0000
  O   O3        1.0  0.07699  0.81820  0.72295  1.0000
  O   O4        1.0  0.92301  0.81820  0.77705  1.0000
  O   O5        1.0  0.42301  0.68180  0.27705  1.0000
  O   O6        1.0  0.57699  0.68180  0.22295  1.0000
  O   O7        1.0  0.92301  0.18180  0.27705  1.0000
  O   O8        1.0  0.07699  0.18180  0.22295  1.0000
  O   O9        1.0  0.67945  0.37530  0.68347  1.0000
  O   O10       1.0  0.32055  0.37530  0.81653  1.0000
  O   O11       1.0  0.17945  0.87530  0.68347  1.0000
  O   O12       1.0  0.82055  0.87530  0.81653  1.0000
  O   O13       1.0  0.32055  0.62470  0.31653  1.0000
  O   O14       1.0  0.67945  0.62470  0.18347  1.0000
  O   O15       1.0  0.82055  0.12470  0.31653  1.0000
  O   O16       1.0  0.17945  0.12470  0.18347  1.0000
  O   O17       1.0  0.54419  0.37870  0.56199  1.0000
  O   O18       1.0  0.45581  0.37870  0.93801  1.0000
  O   O19       1.0  0.04419  0.87870  0.56199  1.0000
  O   O20       1.0  0.95581  0.87870  0.93801  1.0000
  O   O21       1.0  0.45581  0.62130  0.43801  1.0000
  O   O22       1.0  0.54419  0.62130  0.06199  1.0000
  O   O23       1.0  0.95581  0.12130  0.43801  1.0000
  O   O24       1.0  0.04419  0.12130  0.06199  1.0000
  O   O25       1.0  0.73217  0.04790  0.64486  1.0000
  O   O26       1.0  0.26783  0.04790  0.85514  1.0000
  O   O27       1.0  0.23217  0.54790  0.64486  1.0000
  O   O28       1.0  0.76783  0.54790  0.85514  1.0000
  O   O29       1.0  0.26783  0.95210  0.35514  1.0000
  O   O30       1.0  0.73217  0.95210  0.14486  1.0000
  O   O31       1.0  0.76783  0.45210  0.35514  1.0000
  O   O32       1.0  0.23217  0.45210  0.14486  1.0000
  O   O33       1.0  0.44239  0.08760  0.68577  1.0000
  O   O34       1.0  0.55761  0.08760  0.81423  1.0000
  O   O35       1.0  0.94239  0.58760  0.68577  1.0000
  O   O36       1.0  0.05761  0.58760  0.81423  1.0000
  O   O37       1.0  0.55761  0.91240  0.31423  1.0000
  O   O38       1.0  0.44239  0.91240  0.18577  1.0000
  O   O39       1.0  0.05761  0.41240  0.31423  1.0000
  O   O40       1.0  0.94239  0.41240  0.18577  1.0000
  O   O41       1.0  0.35492  0.99970  0.73355  1.0000
  O   O42       1.0  0.64508  0.99970  0.76645  1.0000
  O   O43       1.0  0.85492  0.49970  0.73355  1.0000
  O   O44       1.0  0.14508  0.49970  0.76645  1.0000
  O   O45       1.0  0.64508  0.00030  0.26645  1.0000
  O   O46       1.0  0.35492  0.00030  0.23355  1.0000
  O   O47       1.0  0.14508  0.50030  0.26645  1.0000
  O   O48       1.0  0.85492  0.50030  0.23355  1.0000
  O   O49       1.0  0.29584  0.12580  0.56419  1.0000
  O   O50       1.0  0.70416  0.12580  0.93581  1.0000
  O   O51       1.0  0.79584  0.62580  0.56419  1.0000
  O   O52       1.0  0.20416  0.62580  0.93581  1.0000
  O   O53       1.0  0.70416  0.87420  0.43581  1.0000
  O   O54       1.0  0.29584  0.87420  0.06419  1.0000
  O   O55       1.0  0.20416  0.37420  0.43581  1.0000
  O   O56       1.0  0.79584  0.37420  0.06419  1.0000
  O   O57       1.0  0.47266  0.76480  0.63630  1.0000
  O   O58       1.0  0.52734  0.76480  0.86370  1.0000
  O   O59       1.0  0.97266  0.26480  0.63630  1.0000
  O   O60       1.0  0.02734  0.26480  0.86370  1.0000
  O   O61       1.0  0.52734  0.23520  0.36370  1.0000
  O   O62       1.0  0.47266  0.23520  0.13630  1.0000
  O   O63       1.0  0.02734  0.73520  0.36370  1.0000
  O   O64       1.0  0.97266  0.73520  0.13630  1.0000
  N   N1        1.0  0.63222  0.19940  0.59917  1.0000
  N   N2        1.0  0.36778  0.19940  0.90083  1.0000
  N   N3        1.0  0.13222  0.69940  0.59917  1.0000
  N   N4        1.0  0.86778  0.69940  0.90083  1.0000
  N   N5        1.0  0.36778  0.80060  0.40083  1.0000
  N   N6        1.0  0.63222  0.80060  0.09917  1.0000
  N   N7        1.0  0.86778  0.30060  0.40083  1.0000
  N   N8        1.0  0.13222  0.30060  0.09917  1.0000
  N   N9        1.0  0.38151  0.93980  0.59782  1.0000
  N   N10       1.0  0.61849  0.93980  0.90218  1.0000
  N   N11       1.0  0.88151  0.43980  0.59782  1.0000
  N   N12       1.0  0.11849  0.43980  0.90218  1.0000
  N   N13       1.0  0.61849  0.06020  0.40218  1.0000
  N   N14       1.0  0.38151  0.06020  0.09782  1.0000
  N   N15       1.0  0.11849  0.56020  0.40218  1.0000
  N   N16       1.0  0.88151  0.56020  0.09782  1.0000
  C   C1        1.0  0.61677  0.30360  0.68601  1.0000
  C   C2        1.0  0.38323  0.30360  0.81399  1.0000
  C   C3        1.0  0.11677  0.80360  0.68601  1.0000
  C   C4        1.0  0.88323  0.80360  0.81399  1.0000
  C   C5        1.0  0.38323  0.69640  0.31399  1.0000
  C   C6        1.0  0.61677  0.69640  0.18601  1.0000
  C   C7        1.0  0.88323  0.19640  0.31399  1.0000
  C   C8        1.0  0.11677  0.19640  0.18601  1.0000
  C   C9        1.0  0.58714  0.18910  0.64304  1.0000
  C   C10       1.0  0.41286  0.18910  0.85696  1.0000
  C   C11       1.0  0.08714  0.68910  0.64304  1.0000
  C   C12       1.0  0.91286  0.68910  0.85696  1.0000
  C   C13       1.0  0.41286  0.81090  0.35696  1.0000
  C   C14       1.0  0.58714  0.81090  0.14304  1.0000
  C   C15       1.0  0.91286  0.31090  0.35696  1.0000
  C   C16       1.0  0.08714  0.31090  0.14304  1.0000
  H   H1        1.0  0.59541  0.09089  0.65932  1.0000
  H   H2        1.0  0.40459  0.09089  0.84068  1.0000
  H   H3        1.0  0.09541  0.59089  0.65932  1.0000
  H   H4        1.0  0.90459  0.59089  0.84068  1.0000
  H   H5        1.0  0.40459  0.90911  0.34068  1.0000
  H   H6        1.0  0.59541  0.90911  0.15932  1.0000
  H   H7        1.0  0.90459  0.40911  0.34068  1.0000
  H   H8        1.0  0.09541  0.40911  0.15932  1.0000
  H   H9        1.0  0.52701  0.20231  0.62852  1.0000
  H   H10       1.0  0.47299  0.20231  0.87148  1.0000
  H   H11       1.0  0.02701  0.70231  0.62852  1.0000
  H   H12       1.0  0.97299  0.70231  0.87148  1.0000
  H   H13       1.0  0.47299  0.79769  0.37148  1.0000
  H   H14       1.0  0.52701  0.79769  0.12852  1.0000
  H   H15       1.0  0.97299  0.29769  0.37148  1.0000
  H   H16       1.0  0.02701  0.29769  0.12852  1.0000
  C   C17       1.0  0.70637  0.12170  0.60506  1.0000
  C   C18       1.0  0.29363  0.12170  0.89494  1.0000
  C   C19       1.0  0.20637  0.62170  0.60506  1.0000
  C   C20       1.0  0.79363  0.62170  0.89494  1.0000
  C   C21       1.0  0.29363  0.87830  0.39494  1.0000
  C   C22       1.0  0.70637  0.87830  0.10506  1.0000
  C   C23       1.0  0.79363  0.37830  0.39494  1.0000
  C   C24       1.0  0.20637  0.37830  0.10506  1.0000
  C   C25       1.0  0.60567  0.30600  0.56074  1.0000
  C   C26       1.0  0.39433  0.30600  0.93926  1.0000
  C   C27       1.0  0.10567  0.80600  0.56074  1.0000
  C   C28       1.0  0.89433  0.80600  0.93926  1.0000
  C   C29       1.0  0.39433  0.69400  0.43926  1.0000
  C   C30       1.0  0.60567  0.69400  0.06074  1.0000
  C   C31       1.0  0.89433  0.19400  0.43926  1.0000
  C   C32       1.0  0.10567  0.19400  0.06074  1.0000
  C   C33       1.0  0.75302  0.13650  0.56116  1.0000
  C   C34       1.0  0.24698  0.13650  0.93884  1.0000
  C   C35       1.0  0.25302  0.63650  0.56116  1.0000
  C   C36       1.0  0.74698  0.63650  0.93884  1.0000
  C   C37       1.0  0.24698  0.86350  0.43884  1.0000
  C   C38       1.0  0.75302  0.86350  0.06116  1.0000
  C   C39       1.0  0.74698  0.36350  0.43884  1.0000
  C   C40       1.0  0.25302  0.36350  0.06116  1.0000
  C   C41       1.0  0.65528  0.32680  0.51867  1.0000
  C   C42       1.0  0.34472  0.32680  0.98133  1.0000
  C   C43       1.0  0.15528  0.82680  0.51867  1.0000
  C   C44       1.0  0.84472  0.82680  0.98133  1.0000
  C   C45       1.0  0.34472  0.67320  0.48133  1.0000
  C   C46       1.0  0.65528  0.67320  0.01867  1.0000
  C   C47       1.0  0.84472  0.17320  0.48133  1.0000
  C   C48       1.0  0.15528  0.17320  0.01867  1.0000
  C   C49       1.0  0.82317  0.05350  0.56194  1.0000
  C   C50       1.0  0.17683  0.05350  0.93806  1.0000
  C   C51       1.0  0.32317  0.55350  0.56194  1.0000
  C   C52       1.0  0.67683  0.55350  0.93806  1.0000
  C   C53       1.0  0.17683  0.94650  0.43806  1.0000
  C   C54       1.0  0.82317  0.94650  0.06194  1.0000
  C   C55       1.0  0.67683  0.44650  0.43806  1.0000
  C   C56       1.0  0.32317  0.44650  0.06194  1.0000
  H   H17       1.0  0.84041  0.98416  0.58966  1.0000
  H   H18       1.0  0.15959  0.98416  0.91034  1.0000
  H   H19       1.0  0.34041  0.48416  0.58966  1.0000
  H   H20       1.0  0.65959  0.48416  0.91034  1.0000
  H   H21       1.0  0.15959  0.01584  0.41034  1.0000
  H   H22       1.0  0.84041  0.01584  0.08966  1.0000
  H   H23       1.0  0.65959  0.51584  0.41034  1.0000
  H   H24       1.0  0.34041  0.51584  0.08966  1.0000
  C   C57       1.0  0.72666  0.24080  0.52024  1.0000
  C   C58       1.0  0.27334  0.24080  0.97976  1.0000
  C   C59       1.0  0.22666  0.74080  0.52024  1.0000
  C   C60       1.0  0.77334  0.74080  0.97976  1.0000
  C   C61       1.0  0.27334  0.75920  0.47976  1.0000
  C   C62       1.0  0.72666  0.75920  0.02024  1.0000
  C   C63       1.0  0.77334  0.25920  0.47976  1.0000
  C   C64       1.0  0.22666  0.25920  0.02024  1.0000
  C   C65       1.0  0.63085  0.42820  0.47846  1.0000
  C   C66       1.0  0.36915  0.42820  0.02154  1.0000
  C   C67       1.0  0.13085  0.92820  0.47846  1.0000
  C   C68       1.0  0.86915  0.92820  0.02154  1.0000
  C   C69       1.0  0.36915  0.57180  0.52154  1.0000
  C   C70       1.0  0.63085  0.57180  0.97846  1.0000
  C   C71       1.0  0.86915  0.07180  0.52154  1.0000
  C   C72       1.0  0.13085  0.07180  0.97846  1.0000
  H   H25       1.0  0.58281  0.48591  0.47805  1.0000
  H   H26       1.0  0.41719  0.48591  0.02195  1.0000
  H   H27       1.0  0.08281  0.98591  0.47805  1.0000
  H   H28       1.0  0.91719  0.98591  0.02195  1.0000
  H   H29       1.0  0.41719  0.51409  0.52195  1.0000
  H   H30       1.0  0.58281  0.51409  0.97805  1.0000
  H   H31       1.0  0.91719  0.01409  0.52195  1.0000
  H   H32       1.0  0.08281  0.01409  0.97805  1.0000
  C   C73       1.0  0.38111  0.01030  0.69185  1.0000
  C   C74       1.0  0.61889  0.01030  0.80815  1.0000
  C   C75       1.0  0.88111  0.51030  0.69185  1.0000
  C   C76       1.0  0.11889  0.51030  0.80815  1.0000
  C   C77       1.0  0.61889  0.98970  0.30815  1.0000
  C   C78       1.0  0.38111  0.98970  0.19185  1.0000
  C   C79       1.0  0.11889  0.48970  0.30815  1.0000
  C   C80       1.0  0.88111  0.48970  0.19185  1.0000
  C   C81       1.0  0.33800  0.92550  0.64231  1.0000
  C   C82       1.0  0.66200  0.92550  0.85769  1.0000
  C   C83       1.0  0.83800  0.42550  0.64231  1.0000
  C   C84       1.0  0.16200  0.42550  0.85769  1.0000
  C   C85       1.0  0.66200  0.07450  0.35769  1.0000
  C   C86       1.0  0.33800  0.07450  0.14231  1.0000
  C   C87       1.0  0.16200  0.57450  0.35769  1.0000
  C   C88       1.0  0.83800  0.57450  0.14231  1.0000
  H   H33       1.0  0.33514  0.82130  0.65173  1.0000
  H   H34       1.0  0.66486  0.82130  0.84827  1.0000
  H   H35       1.0  0.83514  0.32130  0.65173  1.0000
  H   H36       1.0  0.16486  0.32130  0.84827  1.0000
  H   H37       1.0  0.66486  0.17870  0.34827  1.0000
  H   H38       1.0  0.33514  0.17870  0.15173  1.0000
  H   H39       1.0  0.16486  0.67870  0.34827  1.0000
  H   H40       1.0  0.83514  0.67870  0.15173  1.0000
  H   H41       1.0  0.28043  0.96177  0.63068  1.0000
  H   H42       1.0  0.71957  0.96177  0.86932  1.0000
  H   H43       1.0  0.78043  0.46177  0.63068  1.0000
  H   H44       1.0  0.21957  0.46177  0.86932  1.0000
  H   H45       1.0  0.71957  0.03823  0.36932  1.0000
  H   H46       1.0  0.28043  0.03823  0.13068  1.0000
  H   H47       1.0  0.21957  0.53823  0.36932  1.0000
  H   H48       1.0  0.78043  0.53823  0.13068  1.0000
  C   C89       1.0  0.45201  0.85470  0.60061  1.0000
  C   C90       1.0  0.54799  0.85470  0.89939  1.0000
  C   C91       1.0  0.95201  0.35470  0.60061  1.0000
  C   C92       1.0  0.04799  0.35470  0.89939  1.0000
  C   C93       1.0  0.54799  0.14530  0.39939  1.0000
  C   C94       1.0  0.45201  0.14530  0.10061  1.0000
  C   C95       1.0  0.04799  0.64530  0.39939  1.0000
  C   C96       1.0  0.95201  0.64530  0.10061  1.0000
  C   C97       1.0  0.35602  0.05170  0.56152  1.0000
  C   C98       1.0  0.64398  0.05170  0.93848  1.0000
  C   C99       1.0  0.85602  0.55170  0.56152  1.0000
  C   C100      1.0  0.14398  0.55170  0.93848  1.0000
  C   C101      1.0  0.64398  0.94830  0.43848  1.0000
  C   C102      1.0  0.35602  0.94830  0.06152  1.0000
  C   C103      1.0  0.14398  0.44830  0.43848  1.0000
  C   C104      1.0  0.85602  0.44830  0.06152  1.0000
  C   C105      1.0  0.50069  0.87810  0.55836  1.0000
  C   C106      1.0  0.49931  0.87810  0.94164  1.0000
  C   C107      1.0  0.00069  0.37810  0.55836  1.0000
  C   C108      1.0  0.99931  0.37810  0.94164  1.0000
  C   C109      1.0  0.49931  0.12190  0.44164  1.0000
  C   C110      1.0  0.50069  0.12190  0.05836  1.0000
  C   C111      1.0  0.99931  0.62190  0.44164  1.0000
  C   C112      1.0  0.00069  0.62190  0.05836  1.0000
  C   C113      1.0  0.40592  0.07630  0.51970  1.0000
  C   C114      1.0  0.59408  0.07630  0.98030  1.0000
  C   C115      1.0  0.90592  0.57630  0.51970  1.0000
  C   C116      1.0  0.09408  0.57630  0.98030  1.0000
  C   C117      1.0  0.59408  0.92370  0.48030  1.0000
  C   C118      1.0  0.40592  0.92370  0.01970  1.0000
  C   C119      1.0  0.09408  0.42370  0.48030  1.0000
  C   C120      1.0  0.90592  0.42370  0.01970  1.0000
  C   C121      1.0  0.56931  0.79270  0.55731  1.0000
  C   C122      1.0  0.43069  0.79270  0.94269  1.0000
  C   C123      1.0  0.06931  0.29270  0.55731  1.0000
  C   C124      1.0  0.93069  0.29270  0.94269  1.0000
  C   C125      1.0  0.43069  0.20730  0.44269  1.0000
  C   C126      1.0  0.56931  0.20730  0.05731  1.0000
  C   C127      1.0  0.93069  0.70730  0.44269  1.0000
  C   C128      1.0  0.06931  0.70730  0.05731  1.0000
  H   H49       1.0  0.58463  0.71761  0.58309  1.0000
  H   H50       1.0  0.41537  0.71761  0.91691  1.0000
  H   H51       1.0  0.08463  0.21761  0.58309  1.0000
  H   H52       1.0  0.91537  0.21761  0.91691  1.0000
  H   H53       1.0  0.41537  0.28239  0.41691  1.0000
  H   H54       1.0  0.58463  0.28239  0.08309  1.0000
  H   H55       1.0  0.91537  0.78239  0.41691  1.0000
  H   H56       1.0  0.08463  0.78239  0.08309  1.0000
  C   C129      1.0  0.47629  0.98880  0.51994  1.0000
  C   C130      1.0  0.52371  0.98880  0.98006  1.0000
  C   C131      1.0  0.97629  0.48880  0.51994  1.0000
  C   C132      1.0  0.02371  0.48880  0.98006  1.0000
  C   C133      1.0  0.52371  0.01120  0.48006  1.0000
  C   C134      1.0  0.47629  0.01120  0.01994  1.0000
  C   C135      1.0  0.02371  0.51120  0.48006  1.0000
  C   C136      1.0  0.97629  0.51120  0.01994  1.0000
  C   C137      1.0  0.38337  0.18310  0.48199  1.0000
  C   C138      1.0  0.61663  0.18310  0.01801  1.0000
  C   C139      1.0  0.88337  0.68310  0.48199  1.0000
  C   C140      1.0  0.11663  0.68310  0.01801  1.0000
  C   C141      1.0  0.61663  0.81690  0.51801  1.0000
  C   C142      1.0  0.38337  0.81690  0.98199  1.0000
  C   C143      1.0  0.11663  0.31690  0.51801  1.0000
  C   C144      1.0  0.88337  0.31690  0.98199  1.0000
  H   H57       1.0  0.33567  0.24103  0.48234  1.0000
  H   H58       1.0  0.66433  0.24103  0.01766  1.0000
  H   H59       1.0  0.83567  0.74103  0.48234  1.0000
  H   H60       1.0  0.16433  0.74103  0.01766  1.0000
  H   H61       1.0  0.66433  0.75897  0.51766  1.0000
  H   H62       1.0  0.33567  0.75897  0.98234  1.0000
  H   H63       1.0  0.16433  0.25897  0.51766  1.0000
  H   H64       1.0  0.83567  0.25897  0.98234  1.0000
