data_image0
_chemical_formula_structural       Zn4O64N16C16H16C40H8C16H8C16H16C40H8C16H8
_chemical_formula_sum              "Zn4 O64 N16 C144 H64"
_cell_length_a       16.468
_cell_length_b       9.169
_cell_length_c       25.512
_cell_angle_alpha    90
_cell_angle_beta     102.04
_cell_angle_gamma    90

_space_group_name_H-M_alt    "P 1"
_space_group_IT_number       1

loop_
  _space_group_symop_operation_xyz
  'x, y, z'

loop_
  _atom_site_type_symbol
  _atom_site_label
  _atom_site_symmetry_multiplicity
  _atom_site_fract_x
  _atom_site_fract_y
  _atom_site_fract_z
  _atom_site_occupancy
  Zn  Zn1       1.0  0.50000  0.18835  0.75000  1.0000
  Zn  Zn2       1.0  0.00000  0.68835  0.75000  1.0000
  Zn  Zn3       1.0  0.50000  0.81165  0.25000  1.0000
  Zn  Zn4       1.0  0.00000  0.31165  0.25000  1.0000
  O   O1        1.0  0.57620  0.31680  0.72266  1.0000
  O   O2        1.0  0.42380  0.31680  0.77734  1.0000
  O   O3        1.0  0.07620  0.81680  0.72266  1.0000
  O   O4        1.0  0.92380  0.81680  0.77734  1.0000
  O   O5        1.0  0.42380  0.68320  0.27734  1.0000
  O   O6        1.0  0.57620  0.68320  0.22266  1.0000
  O   O7        1.0  0.92380  0.18320  0.27734  1.0000
  O   O8        1.0  0.07620  0.18320  0.22266  1.0000
  O   O9        1.0  0.67960  0.37310  0.68380  1.0000
  O   O10       1.0  0.32040  0.37310  0.81620  1.0000
  O   O11       1.0  0.17960  0.87310  0.68380  1.0000
  O   O12       1.0  0.82040  0.87310  0.81620  1.0000
  O   O13       1.0  0.32040  0.62690  0.31620  1.0000
  O   O14       1.0  0.67960  0.62690  0.18380  1.0000
  O   O15       1.0  0.82040  0.12690  0.31620  1.0000
  O   O16       1.0  0.17960  0.12690  0.18380  1.0000
  O   O17       1.0  0.73130  0.04530  0.64414  1.0000
  O   O18       1.0  0.26870  0.04530  0.85586  1.0000
  O   O19       1.0  0.23130  0.54530  0.64414  1.0000
  O   O20       1.0  0.76870  0.54530  0.85586  1.0000
  O   O21       1.0  0.26870  0.95470  0.35586  1.0000
  O   O22       1.0  0.73130  0.95470  0.14414  1.0000
  O   O23       1.0  0.76870  0.45470  0.35586  1.0000
  O   O24       1.0  0.23130  0.45470  0.14414  1.0000
  O   O25       1.0  0.54400  0.37900  0.56211  1.0000
  O   O26       1.0  0.45600  0.37900  0.93789  1.0000
  O   O27       1.0  0.04400  0.87900  0.56211  1.0000
  O   O28       1.0  0.95600  0.87900  0.93789  1.0000
  O   O29       1.0  0.45600  0.62100  0.43789  1.0000
  O   O30       1.0  0.54400  0.62100  0.06211  1.0000
  O   O31       1.0  0.95600  0.12100  0.43789  1.0000
  O   O32       1.0  0.04400  0.12100  0.06211  1.0000
  O   O33       1.0  0.44210  0.08620  0.68670  1.0000
  O   O34       1.0  0.55790  0.08620  0.81330  1.0000
  O   O35       1.0  0.94210  0.58620  0.68670  1.0000
  O   O36       1.0  0.05790  0.58620  0.81330  1.0000
  O   O37       1.0  0.55790  0.91380  0.31330  1.0000
  O   O38       1.0  0.44210  0.91380  0.18670  1.0000
  O   O39       1.0  0.05790  0.41380  0.31330  1.0000
  O   O40       1.0  0.94210  0.41380  0.18670  1.0000
  O   O41       1.0  0.35310  0.99780  0.73337  1.0000
  O   O42       1.0  0.64690  0.99780  0.76663  1.0000
  O   O43       1.0  0.85310  0.49780  0.73337  1.0000
  O   O44       1.0  0.14690  0.49780  0.76663  1.0000
  O   O45       1.0  0.64690  0.00220  0.26663  1.0000
  O   O46       1.0  0.35310  0.00220  0.23337  1.0000
  O   O47       1.0  0.14690  0.50220  0.26663  1.0000
  O   O48       1.0  0.85310  0.50220  0.23337  1.0000
  O   O49       1.0  0.29590  0.12660  0.56440  1.0000
  O   O50       1.0  0.70410  0.12660  0.93560  1.0000
  O   O51       1.0  0.79590  0.62660  0.56440  1.0000
  O   O52       1.0  0.20410  0.62660  0.93560  1.0000
  O   O53       1.0  0.70410  0.87340  0.43560  1.0000
  O   O54       1.0  0.29590  0.87340  0.06440  1.0000
  O   O55       1.0  0.20410  0.37340  0.43560  1.0000
  O   O56       1.0  0.79590  0.37340  0.06440  1.0000
  O   O57       1.0  0.47320  0.76380  0.63613  1.0000
  O   O58       1.0  0.52680  0.76380  0.86387  1.0000
  O   O59       1.0  0.97320  0.26380  0.63613  1.0000
  O   O60       1.0  0.02680  0.26380  0.86387  1.0000
  O   O61       1.0  0.52680  0.23620  0.36387  1.0000
  O   O62       1.0  0.47320  0.23620  0.13613  1.0000
  O   O63       1.0  0.02680  0.73620  0.36387  1.0000
  O   O64       1.0  0.97320  0.73620  0.13613  1.0000
  N   N1        1.0  0.63180  0.19910  0.59874  1.0000
  N   N2        1.0  0.36820  0.19910  0.90126  1.0000
  N   N3        1.0  0.13180  0.69910  0.59874  1.0000
  N   N4        1.0  0.86820  0.69910  0.90126  1.0000
  N   N5        1.0  0.36820  0.80090  0.40126  1.0000
  N   N6        1.0  0.63180  0.80090  0.09874  1.0000
  N   N7        1.0  0.86820  0.30090  0.40126  1.0000
  N   N8        1.0  0.13180  0.30090  0.09874  1.0000
  N   N9        1.0  0.38150  0.93920  0.59772  1.0000
  N   N10       1.0  0.61850  0.93920  0.90228  1.0000
  N   N11       1.0  0.88150  0.43920  0.59772  1.0000
  N   N12       1.0  0.11850  0.43920  0.90228  1.0000
  N   N13       1.0  0.61850  0.06080  0.40228  1.0000
  N   N14       1.0  0.38150  0.06080  0.09772  1.0000
  N   N15       1.0  0.11850  0.56080  0.40228  1.0000
  N   N16       1.0  0.88150  0.56080  0.09772  1.0000
  C   C1        1.0  0.61650  0.30150  0.68590  1.0000
  C   C2        1.0  0.38350  0.30150  0.81410  1.0000
  C   C3        1.0  0.11650  0.80150  0.68590  1.0000
  C   C4        1.0  0.88350  0.80150  0.81410  1.0000
  C   C5        1.0  0.38350  0.69850  0.31410  1.0000
  C   C6        1.0  0.61650  0.69850  0.18590  1.0000
  C   C7        1.0  0.88350  0.19850  0.31410  1.0000
  C   C8        1.0  0.11650  0.19850  0.18590  1.0000
  C   C9        1.0  0.58660  0.18830  0.64250  1.0000
  C   C10       1.0  0.41340  0.18830  0.85750  1.0000
  C   C11       1.0  0.08660  0.68830  0.64250  1.0000
  C   C12       1.0  0.91340  0.68830  0.85750  1.0000
  C   C13       1.0  0.41340  0.81170  0.35750  1.0000
  C   C14       1.0  0.58660  0.81170  0.14250  1.0000
  C   C15       1.0  0.91340  0.31170  0.35750  1.0000
  C   C16       1.0  0.08660  0.31170  0.14250  1.0000
  H   H1        1.0  0.59437  0.08958  0.65847  1.0000
  H   H2        1.0  0.40563  0.08958  0.84153  1.0000
  H   H3        1.0  0.09437  0.58958  0.65847  1.0000
  H   H4        1.0  0.90563  0.58958  0.84153  1.0000
  H   H5        1.0  0.40563  0.91042  0.34153  1.0000
  H   H6        1.0  0.59437  0.91042  0.15847  1.0000
  H   H7        1.0  0.90563  0.41042  0.34153  1.0000
  H   H8        1.0  0.09437  0.41042  0.15847  1.0000
  H   H9        1.0  0.52650  0.20249  0.62795  1.0000
  H   H10       1.0  0.47350  0.20249  0.87205  1.0000
  H   H11       1.0  0.02650  0.70249  0.62795  1.0000
  H   H12       1.0  0.97350  0.70249  0.87205  1.0000
  H   H13       1.0  0.47350  0.79751  0.37205  1.0000
  H   H14       1.0  0.52650  0.79751  0.12795  1.0000
  H   H15       1.0  0.97350  0.29751  0.37205  1.0000
  H   H16       1.0  0.02650  0.29751  0.12795  1.0000
  C   C17       1.0  0.70610  0.12010  0.60460  1.0000
  C   C18       1.0  0.29390  0.12010  0.89540  1.0000
  C   C19       1.0  0.20610  0.62010  0.60460  1.0000
  C   C20       1.0  0.79390  0.62010  0.89540  1.0000
  C   C21       1.0  0.29390  0.87990  0.39540  1.0000
  C   C22       1.0  0.70610  0.87990  0.10460  1.0000
  C   C23       1.0  0.79390  0.37990  0.39540  1.0000
  C   C24       1.0  0.20610  0.37990  0.10460  1.0000
  C   C25       1.0  0.60560  0.30560  0.56070  1.0000
  C   C26       1.0  0.39440  0.30560  0.93930  1.0000
  C   C27       1.0  0.10560  0.80560  0.56070  1.0000
  C   C28       1.0  0.89440  0.80560  0.93930  1.0000
  C   C29       1.0  0.39440  0.69440  0.43930  1.0000
  C   C30       1.0  0.60560  0.69440  0.06070  1.0000
  C   C31       1.0  0.89440  0.19440  0.43930  1.0000
  C   C32       1.0  0.10560  0.19440  0.06070  1.0000
  C   C33       1.0  0.75300  0.13610  0.56070  1.0000
  C   C34       1.0  0.24700  0.13610  0.93930  1.0000
  C   C35       1.0  0.25300  0.63610  0.56070  1.0000
  C   C36       1.0  0.74700  0.63610  0.93930  1.0000
  C   C37       1.0  0.24700  0.86390  0.43930  1.0000
  C   C38       1.0  0.75300  0.86390  0.06070  1.0000
  C   C39       1.0  0.74700  0.36390  0.43930  1.0000
  C   C40       1.0  0.25300  0.36390  0.06070  1.0000
  C   C41       1.0  0.65500  0.32760  0.51850  1.0000
  C   C42       1.0  0.34500  0.32760  0.98150  1.0000
  C   C43       1.0  0.15500  0.82760  0.51850  1.0000
  C   C44       1.0  0.84500  0.82760  0.98150  1.0000
  C   C45       1.0  0.34500  0.67240  0.48150  1.0000
  C   C46       1.0  0.65500  0.67240  0.01850  1.0000
  C   C47       1.0  0.84500  0.17240  0.48150  1.0000
  C   C48       1.0  0.15500  0.17240  0.01850  1.0000
  C   C49       1.0  0.82310  0.05250  0.56140  1.0000
  C   C50       1.0  0.17690  0.05250  0.93860  1.0000
  C   C51       1.0  0.32310  0.55250  0.56140  1.0000
  C   C52       1.0  0.67690  0.55250  0.93860  1.0000
  C   C53       1.0  0.17690  0.94750  0.43860  1.0000
  C   C54       1.0  0.82310  0.94750  0.06140  1.0000
  C   C55       1.0  0.67690  0.44750  0.43860  1.0000
  C   C56       1.0  0.32310  0.44750  0.06140  1.0000
  H   H17       1.0  0.84008  0.98272  0.58907  1.0000
  H   H18       1.0  0.15992  0.98272  0.91093  1.0000
  H   H19       1.0  0.34008  0.48272  0.58907  1.0000
  H   H20       1.0  0.65992  0.48272  0.91093  1.0000
  H   H21       1.0  0.15992  0.01728  0.41093  1.0000
  H   H22       1.0  0.84008  0.01728  0.08907  1.0000
  H   H23       1.0  0.65992  0.51728  0.41093  1.0000
  H   H24       1.0  0.34008  0.51728  0.08907  1.0000
  C   C57       1.0  0.72670  0.24080  0.52040  1.0000
  C   C58       1.0  0.27330  0.24080  0.97960  1.0000
  C   C59       1.0  0.22670  0.74080  0.52040  1.0000
  C   C60       1.0  0.77330  0.74080  0.97960  1.0000
  C   C61       1.0  0.27330  0.75920  0.47960  1.0000
  C   C62       1.0  0.72670  0.75920  0.02040  1.0000
  C   C63       1.0  0.77330  0.25920  0.47960  1.0000
  C   C64       1.0  0.22670  0.25920  0.02040  1.0000
  C   C65       1.0  0.63100  0.42930  0.47860  1.0000
  C   C66       1.0  0.36900  0.42930  0.02140  1.0000
  C   C67       1.0  0.13100  0.92930  0.47860  1.0000
  C   C68       1.0  0.86900  0.92930  0.02140  1.0000
  C   C69       1.0  0.36900  0.57070  0.52140  1.0000
  C   C70       1.0  0.63100  0.57070  0.97860  1.0000
  C   C71       1.0  0.86900  0.07070  0.52140  1.0000
  C   C72       1.0  0.13100  0.07070  0.97860  1.0000
  H   H25       1.0  0.58302  0.48726  0.47816  1.0000
  H   H26       1.0  0.41698  0.48726  0.02184  1.0000
  H   H27       1.0  0.08302  0.98726  0.47816  1.0000
  H   H28       1.0  0.91698  0.98726  0.02184  1.0000
  H   H29       1.0  0.41698  0.51274  0.52184  1.0000
  H   H30       1.0  0.58302  0.51274  0.97816  1.0000
  H   H31       1.0  0.91698  0.01274  0.52184  1.0000
  H   H32       1.0  0.08302  0.01274  0.97816  1.0000
  C   C73       1.0  0.37940  0.00960  0.69180  1.0000
  C   C74       1.0  0.62060  0.00960  0.80820  1.0000
  C   C75       1.0  0.87940  0.50960  0.69180  1.0000
  C   C76       1.0  0.12060  0.50960  0.80820  1.0000
  C   C77       1.0  0.62060  0.99040  0.30820  1.0000
  C   C78       1.0  0.37940  0.99040  0.19180  1.0000
  C   C79       1.0  0.12060  0.49040  0.30820  1.0000
  C   C80       1.0  0.87940  0.49040  0.19180  1.0000
  C   C81       1.0  0.33770  0.92470  0.64200  1.0000
  C   C82       1.0  0.66230  0.92470  0.85800  1.0000
  C   C83       1.0  0.83770  0.42470  0.64200  1.0000
  C   C84       1.0  0.16230  0.42470  0.85800  1.0000
  C   C85       1.0  0.66230  0.07530  0.35800  1.0000
  C   C86       1.0  0.33770  0.07530  0.14200  1.0000
  C   C87       1.0  0.16230  0.57530  0.35800  1.0000
  C   C88       1.0  0.83770  0.57530  0.14200  1.0000
  H   H33       1.0  0.33510  0.82029  0.65140  1.0000
  H   H34       1.0  0.66490  0.82029  0.84860  1.0000
  H   H35       1.0  0.83510  0.32029  0.65140  1.0000
  H   H36       1.0  0.16490  0.32029  0.84860  1.0000
  H   H37       1.0  0.66490  0.17971  0.34860  1.0000
  H   H38       1.0  0.33510  0.17971  0.15140  1.0000
  H   H39       1.0  0.16490  0.67971  0.34860  1.0000
  H   H40       1.0  0.83510  0.67971  0.15140  1.0000
  H   H41       1.0  0.27999  0.96018  0.63003  1.0000
  H   H42       1.0  0.72001  0.96018  0.86997  1.0000
  H   H43       1.0  0.77999  0.46018  0.63003  1.0000
  H   H44       1.0  0.22001  0.46018  0.86997  1.0000
  H   H45       1.0  0.72001  0.03982  0.36997  1.0000
  H   H46       1.0  0.27999  0.03982  0.13003  1.0000
  H   H47       1.0  0.22001  0.53982  0.36997  1.0000
  H   H48       1.0  0.77999  0.53982  0.13003  1.0000
  C   C89       1.0  0.45240  0.85300  0.60040  1.0000
  C   C90       1.0  0.54760  0.85300  0.89960  1.0000
  C   C91       1.0  0.95240  0.35300  0.60040  1.0000
  C   C92       1.0  0.04760  0.35300  0.89960  1.0000
  C   C93       1.0  0.54760  0.14700  0.39960  1.0000
  C   C94       1.0  0.45240  0.14700  0.10040  1.0000
  C   C95       1.0  0.04760  0.64700  0.39960  1.0000
  C   C96       1.0  0.95240  0.64700  0.10040  1.0000
  C   C97       1.0  0.35610  0.05130  0.56180  1.0000
  C   C98       1.0  0.64390  0.05130  0.93820  1.0000
  C   C99       1.0  0.85610  0.55130  0.56180  1.0000
  C   C100      1.0  0.14390  0.55130  0.93820  1.0000
  C   C101      1.0  0.64390  0.94870  0.43820  1.0000
  C   C102      1.0  0.35610  0.94870  0.06180  1.0000
  C   C103      1.0  0.14390  0.44870  0.43820  1.0000
  C   C104      1.0  0.85610  0.44870  0.06180  1.0000
  C   C105      1.0  0.50100  0.87720  0.55800  1.0000
  C   C106      1.0  0.49900  0.87720  0.94200  1.0000
  C   C107      1.0  0.00100  0.37720  0.55800  1.0000
  C   C108      1.0  0.99900  0.37720  0.94200  1.0000
  C   C109      1.0  0.49900  0.12280  0.44200  1.0000
  C   C110      1.0  0.50100  0.12280  0.05800  1.0000
  C   C111      1.0  0.99900  0.62280  0.44200  1.0000
  C   C112      1.0  0.00100  0.62280  0.05800  1.0000
  C   C113      1.0  0.40550  0.07600  0.51950  1.0000
  C   C114      1.0  0.59450  0.07600  0.98050  1.0000
  C   C115      1.0  0.90550  0.57600  0.51950  1.0000
  C   C116      1.0  0.09450  0.57600  0.98050  1.0000
  C   C117      1.0  0.59450  0.92400  0.48050  1.0000
  C   C118      1.0  0.40550  0.92400  0.01950  1.0000
  C   C119      1.0  0.09450  0.42400  0.48050  1.0000
  C   C120      1.0  0.90550  0.42400  0.01950  1.0000
  C   C121      1.0  0.57020  0.79280  0.55690  1.0000
  C   C122      1.0  0.42980  0.79280  0.94310  1.0000
  C   C123      1.0  0.07020  0.29280  0.55690  1.0000
  C   C124      1.0  0.92980  0.29280  0.94310  1.0000
  C   C125      1.0  0.42980  0.20720  0.44310  1.0000
  C   C126      1.0  0.57020  0.20720  0.05690  1.0000
  C   C127      1.0  0.92980  0.70720  0.44310  1.0000
  C   C128      1.0  0.07020  0.70720  0.05690  1.0000
  H   H49       1.0  0.58625  0.71819  0.58279  1.0000
  H   H50       1.0  0.41375  0.71819  0.91721  1.0000
  H   H51       1.0  0.08625  0.21819  0.58279  1.0000
  H   H52       1.0  0.91375  0.21819  0.91721  1.0000
  H   H53       1.0  0.41375  0.28181  0.41721  1.0000
  H   H54       1.0  0.58625  0.28181  0.08279  1.0000
  H   H55       1.0  0.91375  0.78181  0.41721  1.0000
  H   H56       1.0  0.08625  0.78181  0.08279  1.0000
  C   C129      1.0  0.47680  0.98910  0.52021  1.0000
  C   C130      1.0  0.52320  0.98910  0.97979  1.0000
  C   C131      1.0  0.97680  0.48910  0.52021  1.0000
  C   C132      1.0  0.02320  0.48910  0.97979  1.0000
  C   C133      1.0  0.52320  0.01090  0.47979  1.0000
  C   C134      1.0  0.47680  0.01090  0.02021  1.0000
  C   C135      1.0  0.02320  0.51090  0.47979  1.0000
  C   C136      1.0  0.97680  0.51090  0.02021  1.0000
  C   C137      1.0  0.38330  0.18240  0.48260  1.0000
  C   C138      1.0  0.61670  0.18240  0.01740  1.0000
  C   C139      1.0  0.88330  0.68240  0.48260  1.0000
  C   C140      1.0  0.11670  0.68240  0.01740  1.0000
  C   C141      1.0  0.61670  0.81760  0.51740  1.0000
  C   C142      1.0  0.38330  0.81760  0.98260  1.0000
  C   C143      1.0  0.11670  0.31760  0.51740  1.0000
  C   C144      1.0  0.88330  0.31760  0.98260  1.0000
  H   H57       1.0  0.33594  0.24091  0.48341  1.0000
  H   H58       1.0  0.66406  0.24091  0.01659  1.0000
  H   H59       1.0  0.83594  0.74091  0.48341  1.0000
  H   H60       1.0  0.16406  0.74091  0.01659  1.0000
  H   H61       1.0  0.66406  0.75909  0.51659  1.0000
  H   H62       1.0  0.33594  0.75909  0.98341  1.0000
  H   H63       1.0  0.16406  0.25909  0.51659  1.0000
  H   H64       1.0  0.83594  0.25909  0.98341  1.0000
