data_image0
_chemical_formula_structural       Ni4O32C8H8C8H8
_chemical_formula_sum              "Ni4 O32 C16 H16"
_cell_length_a       7.7921
_cell_length_b       22.0548
_cell_length_c       8.46
_cell_angle_alpha    90
_cell_angle_beta     90
_cell_angle_gamma    90

_space_group_name_H-M_alt    "P 1"
_space_group_IT_number       1

loop_
  _space_group_symop_operation_xyz
  'x, y, z'

loop_
  _atom_site_type_symbol
  _atom_site_label
  _atom_site_symmetry_multiplicity
  _atom_site_fract_x
  _atom_site_fract_y
  _atom_site_fract_z
  _atom_site_occupancy
  Ni  Ni1       1.0  0.00000  0.00000  0.00000  1.0000
  Ni  Ni2       1.0  0.50000  0.50000  0.00000  1.0000
  Ni  Ni3       1.0  0.00000  0.50000  0.50000  1.0000
  Ni  Ni4       1.0  0.50000  0.00000  0.50000  1.0000
  O   O1        1.0  0.06900  0.97400  0.22454  1.0000
  O   O2        1.0  0.43100  0.52600  0.22454  1.0000
  O   O3        1.0  0.93100  0.47400  0.27546  1.0000
  O   O4        1.0  0.56900  0.02600  0.27546  1.0000
  O   O5        1.0  0.93100  0.02600  0.77546  1.0000
  O   O6        1.0  0.56900  0.47400  0.77546  1.0000
  O   O7        1.0  0.06900  0.52600  0.72454  1.0000
  O   O8        1.0  0.43100  0.97400  0.72454  1.0000
  O   O9        1.0  0.25198  0.98310  0.42473  1.0000
  O   O10       1.0  0.24802  0.51690  0.42473  1.0000
  O   O11       1.0  0.74802  0.48310  0.07527  1.0000
  O   O12       1.0  0.75198  0.01690  0.07527  1.0000
  O   O13       1.0  0.74802  0.01690  0.57527  1.0000
  O   O14       1.0  0.75198  0.48310  0.57527  1.0000
  O   O15       1.0  0.25198  0.51690  0.92473  1.0000
  O   O16       1.0  0.24802  0.98310  0.92473  1.0000
  O   O17       1.0  0.04778  0.08831  0.06760  1.0000
  O   O18       1.0  0.45222  0.41169  0.06760  1.0000
  O   O19       1.0  0.95222  0.58831  0.43240  1.0000
  O   O20       1.0  0.54778  0.91169  0.43240  1.0000
  O   O21       1.0  0.95222  0.91169  0.93240  1.0000
  O   O22       1.0  0.54778  0.58831  0.93240  1.0000
  O   O23       1.0  0.04778  0.41169  0.56760  1.0000
  O   O24       1.0  0.45222  0.08831  0.56760  1.0000
  O   O25       1.0  0.08172  0.18709  0.02671  1.0000
  O   O26       1.0  0.41828  0.31291  0.02671  1.0000
  O   O27       1.0  0.91828  0.68709  0.47329  1.0000
  O   O28       1.0  0.58172  0.81291  0.47329  1.0000
  O   O29       1.0  0.91828  0.81291  0.97329  1.0000
  O   O30       1.0  0.58172  0.68709  0.97329  1.0000
  O   O31       1.0  0.08172  0.31291  0.52671  1.0000
  O   O32       1.0  0.41828  0.18709  0.52671  1.0000
  C   C1        1.0  0.19942  0.99662  0.28813  1.0000
  C   C2        1.0  0.30058  0.50338  0.28813  1.0000
  C   C3        1.0  0.80058  0.49662  0.21187  1.0000
  C   C4        1.0  0.69942  0.00338  0.21187  1.0000
  C   C5        1.0  0.80058  0.00338  0.71187  1.0000
  C   C6        1.0  0.69942  0.49662  0.71187  1.0000
  C   C7        1.0  0.19942  0.50338  0.78813  1.0000
  C   C8        1.0  0.30058  0.99662  0.78813  1.0000
  H   H1        1.0  0.26280  0.02580  0.22970  1.0000
  H   H2        1.0  0.23720  0.47420  0.22970  1.0000
  H   H3        1.0  0.73720  0.52580  0.27030  1.0000
  H   H4        1.0  0.76280  0.97420  0.27030  1.0000
  H   H5        1.0  0.73720  0.97420  0.77030  1.0000
  H   H6        1.0  0.76280  0.52580  0.77030  1.0000
  H   H7        1.0  0.26280  0.47420  0.72970  1.0000
  H   H8        1.0  0.23720  0.02580  0.72970  1.0000
  C   C9        1.0  0.08724  0.13312  0.98353  1.0000
  C   C10       1.0  0.41276  0.36688  0.98353  1.0000
  C   C11       1.0  0.91276  0.63312  0.51647  1.0000
  C   C12       1.0  0.58724  0.86688  0.51647  1.0000
  C   C13       1.0  0.91276  0.86688  0.01647  1.0000
  C   C14       1.0  0.58724  0.63312  0.01647  1.0000
  C   C15       1.0  0.08724  0.36688  0.48353  1.0000
  C   C16       1.0  0.41276  0.13312  0.48353  1.0000
  H   H9        1.0  0.12430  0.12520  0.87850  1.0000
  H   H10       1.0  0.37570  0.37480  0.87850  1.0000
  H   H11       1.0  0.87570  0.62520  0.62150  1.0000
  H   H12       1.0  0.62430  0.87480  0.62150  1.0000
  H   H13       1.0  0.87570  0.87480  0.12150  1.0000
  H   H14       1.0  0.62430  0.62520  0.12150  1.0000
  H   H15       1.0  0.12430  0.37480  0.37850  1.0000
  H   H16       1.0  0.37570  0.12520  0.37850  1.0000
