data_image0
_chemical_formula_structural       Ni4O32C8H8C8H8
_chemical_formula_sum              "Ni4 O32 C16 H16"
_cell_length_a       7.8655
_cell_length_b       22.0691
_cell_length_c       8.5179
_cell_angle_alpha    90
_cell_angle_beta     90
_cell_angle_gamma    90

_space_group_name_H-M_alt    "P 1"
_space_group_IT_number       1

loop_
  _space_group_symop_operation_xyz
  'x, y, z'

loop_
  _atom_site_type_symbol
  _atom_site_label
  _atom_site_symmetry_multiplicity
  _atom_site_fract_x
  _atom_site_fract_y
  _atom_site_fract_z
  _atom_site_occupancy
  Ni  Ni1       1.0  0.00000  0.00000  0.00000  1.0000
  Ni  Ni2       1.0  0.50000  0.50000  0.00000  1.0000
  Ni  Ni3       1.0  0.00000  0.50000  0.50000  1.0000
  Ni  Ni4       1.0  0.50000  0.00000  0.50000  1.0000
  O   O1        1.0  0.07283  0.97510  0.22391  1.0000
  O   O2        1.0  0.42717  0.52490  0.22391  1.0000
  O   O3        1.0  0.92717  0.47510  0.27609  1.0000
  O   O4        1.0  0.57283  0.02490  0.27609  1.0000
  O   O5        1.0  0.92717  0.02490  0.77609  1.0000
  O   O6        1.0  0.57283  0.47510  0.77609  1.0000
  O   O7        1.0  0.07283  0.52490  0.72391  1.0000
  O   O8        1.0  0.42717  0.97510  0.72391  1.0000
  O   O9        1.0  0.25382  0.98328  0.42171  1.0000
  O   O10       1.0  0.24618  0.51672  0.42171  1.0000
  O   O11       1.0  0.74618  0.48328  0.07829  1.0000
  O   O12       1.0  0.75382  0.01672  0.07829  1.0000
  O   O13       1.0  0.74618  0.01672  0.57829  1.0000
  O   O14       1.0  0.75382  0.48328  0.57829  1.0000
  O   O15       1.0  0.25382  0.51672  0.92171  1.0000
  O   O16       1.0  0.24618  0.98328  0.92171  1.0000
  O   O17       1.0  0.04625  0.08892  0.06522  1.0000
  O   O18       1.0  0.45375  0.41108  0.06522  1.0000
  O   O19       1.0  0.95375  0.58892  0.43478  1.0000
  O   O20       1.0  0.54625  0.91108  0.43478  1.0000
  O   O21       1.0  0.95375  0.91108  0.93478  1.0000
  O   O22       1.0  0.54625  0.58892  0.93478  1.0000
  O   O23       1.0  0.04625  0.41108  0.56522  1.0000
  O   O24       1.0  0.45375  0.08892  0.56522  1.0000
  O   O25       1.0  0.08170  0.18632  0.02420  1.0000
  O   O26       1.0  0.41830  0.31368  0.02420  1.0000
  O   O27       1.0  0.91830  0.68632  0.47580  1.0000
  O   O28       1.0  0.58170  0.81368  0.47580  1.0000
  O   O29       1.0  0.91830  0.81368  0.97580  1.0000
  O   O30       1.0  0.58170  0.68632  0.97580  1.0000
  O   O31       1.0  0.08170  0.31368  0.52420  1.0000
  O   O32       1.0  0.41830  0.18632  0.52420  1.0000
  C   C1        1.0  0.20160  0.99680  0.28708  1.0000
  C   C2        1.0  0.29840  0.50320  0.28708  1.0000
  C   C3        1.0  0.79840  0.49680  0.21292  1.0000
  C   C4        1.0  0.70160  0.00320  0.21292  1.0000
  C   C5        1.0  0.79840  0.00320  0.71292  1.0000
  C   C6        1.0  0.70160  0.49680  0.71292  1.0000
  C   C7        1.0  0.20160  0.50320  0.78708  1.0000
  C   C8        1.0  0.29840  0.99680  0.78708  1.0000
  H   H1        1.0  0.26380  0.02520  0.23030  1.0000
  H   H2        1.0  0.23620  0.47480  0.23030  1.0000
  H   H3        1.0  0.73620  0.52520  0.26970  1.0000
  H   H4        1.0  0.76380  0.97480  0.26970  1.0000
  H   H5        1.0  0.73620  0.97480  0.76970  1.0000
  H   H6        1.0  0.76380  0.52520  0.76970  1.0000
  H   H7        1.0  0.26380  0.47480  0.73030  1.0000
  H   H8        1.0  0.23620  0.02520  0.73030  1.0000
  C   C9        1.0  0.08590  0.13272  0.98440  1.0000
  C   C10       1.0  0.41410  0.36728  0.98440  1.0000
  C   C11       1.0  0.91410  0.63272  0.51560  1.0000
  C   C12       1.0  0.58590  0.86728  0.51560  1.0000
  C   C13       1.0  0.91410  0.86728  0.01560  1.0000
  C   C14       1.0  0.58590  0.63272  0.01560  1.0000
  C   C15       1.0  0.08590  0.36728  0.48440  1.0000
  C   C16       1.0  0.41410  0.13272  0.48440  1.0000
  H   H9        1.0  0.12300  0.12460  0.88290  1.0000
  H   H10       1.0  0.37700  0.37540  0.88290  1.0000
  H   H11       1.0  0.87700  0.62460  0.61710  1.0000
  H   H12       1.0  0.62300  0.87540  0.61710  1.0000
  H   H13       1.0  0.87700  0.87540  0.11710  1.0000
  H   H14       1.0  0.62300  0.62460  0.11710  1.0000
  H   H15       1.0  0.12300  0.37540  0.38290  1.0000
  H   H16       1.0  0.37700  0.12460  0.38290  1.0000
