data_image0
_chemical_formula_structural       Co4O32C8H8C8H8
_chemical_formula_sum              "Co4 O32 C16 H16"
_cell_length_a       7.8811
_cell_length_b       22.0928
_cell_length_c       8.5825
_cell_angle_alpha    90
_cell_angle_beta     90
_cell_angle_gamma    90

_space_group_name_H-M_alt    "P 1"
_space_group_IT_number       1

loop_
  _space_group_symop_operation_xyz
  'x, y, z'

loop_
  _atom_site_type_symbol
  _atom_site_label
  _atom_site_symmetry_multiplicity
  _atom_site_fract_x
  _atom_site_fract_y
  _atom_site_fract_z
  _atom_site_occupancy
  Co  Co1       1.0  0.00000  0.00000  0.00000  1.0000
  Co  Co2       1.0  0.50000  0.50000  0.00000  1.0000
  Co  Co3       1.0  0.00000  0.50000  0.50000  1.0000
  Co  Co4       1.0  0.50000  0.00000  0.50000  1.0000
  O   O1        1.0  0.06951  0.97444  0.22746  1.0000
  O   O2        1.0  0.43049  0.52556  0.22746  1.0000
  O   O3        1.0  0.93049  0.47444  0.27254  1.0000
  O   O4        1.0  0.56951  0.02556  0.27254  1.0000
  O   O5        1.0  0.93049  0.02556  0.77254  1.0000
  O   O6        1.0  0.56951  0.47444  0.77254  1.0000
  O   O7        1.0  0.06951  0.52556  0.72746  1.0000
  O   O8        1.0  0.43049  0.97444  0.72746  1.0000
  O   O9        1.0  0.25016  0.98287  0.42446  1.0000
  O   O10       1.0  0.24984  0.51713  0.42446  1.0000
  O   O11       1.0  0.74984  0.48287  0.07554  1.0000
  O   O12       1.0  0.75016  0.01713  0.07554  1.0000
  O   O13       1.0  0.74984  0.01713  0.57554  1.0000
  O   O14       1.0  0.75016  0.48287  0.57554  1.0000
  O   O15       1.0  0.25016  0.51713  0.92446  1.0000
  O   O16       1.0  0.24984  0.98287  0.92446  1.0000
  O   O17       1.0  0.04824  0.08986  0.06696  1.0000
  O   O18       1.0  0.45176  0.41014  0.06696  1.0000
  O   O19       1.0  0.95176  0.58986  0.43304  1.0000
  O   O20       1.0  0.54824  0.91014  0.43304  1.0000
  O   O21       1.0  0.95176  0.91014  0.93304  1.0000
  O   O22       1.0  0.54824  0.58986  0.93304  1.0000
  O   O23       1.0  0.04824  0.41014  0.56696  1.0000
  O   O24       1.0  0.45176  0.08986  0.56696  1.0000
  O   O25       1.0  0.07930  0.18763  0.02700  1.0000
  O   O26       1.0  0.42070  0.31237  0.02700  1.0000
  O   O27       1.0  0.92070  0.68763  0.47300  1.0000
  O   O28       1.0  0.57930  0.81237  0.47300  1.0000
  O   O29       1.0  0.92070  0.81237  0.97300  1.0000
  O   O30       1.0  0.57930  0.68763  0.97300  1.0000
  O   O31       1.0  0.07930  0.31237  0.52700  1.0000
  O   O32       1.0  0.42070  0.18763  0.52700  1.0000
  C   C1        1.0  0.19730  0.99658  0.29141  1.0000
  C   C2        1.0  0.30270  0.50342  0.29141  1.0000
  C   C3        1.0  0.80270  0.49658  0.20859  1.0000
  C   C4        1.0  0.69730  0.00342  0.20859  1.0000
  C   C5        1.0  0.80270  0.00342  0.70859  1.0000
  C   C6        1.0  0.69730  0.49658  0.70859  1.0000
  C   C7        1.0  0.19730  0.50342  0.79141  1.0000
  C   C8        1.0  0.30270  0.99658  0.79141  1.0000
  H   H1        1.0  0.25820  0.02550  0.23600  1.0000
  H   H2        1.0  0.24180  0.47450  0.23600  1.0000
  H   H3        1.0  0.74180  0.52550  0.26400  1.0000
  H   H4        1.0  0.75820  0.97450  0.26400  1.0000
  H   H5        1.0  0.74180  0.97450  0.76400  1.0000
  H   H6        1.0  0.75820  0.52550  0.76400  1.0000
  H   H7        1.0  0.25820  0.47450  0.73600  1.0000
  H   H8        1.0  0.24180  0.02550  0.73600  1.0000
  C   C9        1.0  0.08530  0.13423  0.98600  1.0000
  C   C10       1.0  0.41470  0.36577  0.98600  1.0000
  C   C11       1.0  0.91470  0.63423  0.51400  1.0000
  C   C12       1.0  0.58530  0.86577  0.51400  1.0000
  C   C13       1.0  0.91470  0.86577  0.01400  1.0000
  C   C14       1.0  0.58530  0.63423  0.01400  1.0000
  C   C15       1.0  0.08530  0.36577  0.48600  1.0000
  C   C16       1.0  0.41470  0.13423  0.48600  1.0000
  H   H9        1.0  0.12110  0.12660  0.88470  1.0000
  H   H10       1.0  0.37890  0.37340  0.88470  1.0000
  H   H11       1.0  0.87890  0.62660  0.61530  1.0000
  H   H12       1.0  0.62110  0.87340  0.61530  1.0000
  H   H13       1.0  0.87890  0.87340  0.11530  1.0000
  H   H14       1.0  0.62110  0.62660  0.11530  1.0000
  H   H15       1.0  0.12110  0.37340  0.38470  1.0000
  H   H16       1.0  0.37890  0.12660  0.38470  1.0000
