data_image0
_chemical_formula_structural       Co4O32C8H8C8H8
_chemical_formula_sum              "Co4 O32 C16 H16"
_cell_length_a       7.8265
_cell_length_b       22.099
_cell_length_c       8.5484
_cell_angle_alpha    90
_cell_angle_beta     90
_cell_angle_gamma    90

_space_group_name_H-M_alt    "P 1"
_space_group_IT_number       1

loop_
  _space_group_symop_operation_xyz
  'x, y, z'

loop_
  _atom_site_type_symbol
  _atom_site_label
  _atom_site_symmetry_multiplicity
  _atom_site_fract_x
  _atom_site_fract_y
  _atom_site_fract_z
  _atom_site_occupancy
  Co  Co1       1.0  0.00000  0.00000  0.00000  1.0000
  Co  Co2       1.0  0.50000  0.50000  0.00000  1.0000
  Co  Co3       1.0  0.00000  0.50000  0.50000  1.0000
  Co  Co4       1.0  0.50000  0.00000  0.50000  1.0000
  O   O1        1.0  0.06675  0.97367  0.22837  1.0000
  O   O2        1.0  0.43325  0.52633  0.22837  1.0000
  O   O3        1.0  0.93325  0.47367  0.27163  1.0000
  O   O4        1.0  0.56675  0.02633  0.27163  1.0000
  O   O5        1.0  0.93325  0.02633  0.77163  1.0000
  O   O6        1.0  0.56675  0.47367  0.77163  1.0000
  O   O7        1.0  0.06675  0.52633  0.72837  1.0000
  O   O8        1.0  0.43325  0.97367  0.72837  1.0000
  O   O9        1.0  0.24890  0.98271  0.42688  1.0000
  O   O10       1.0  0.25110  0.51729  0.42688  1.0000
  O   O11       1.0  0.75110  0.48271  0.07312  1.0000
  O   O12       1.0  0.74890  0.01729  0.07312  1.0000
  O   O13       1.0  0.75110  0.01729  0.57312  1.0000
  O   O14       1.0  0.74890  0.48271  0.57312  1.0000
  O   O15       1.0  0.24890  0.51729  0.92688  1.0000
  O   O16       1.0  0.25110  0.98271  0.92688  1.0000
  O   O17       1.0  0.04958  0.08942  0.06823  1.0000
  O   O18       1.0  0.45042  0.41058  0.06823  1.0000
  O   O19       1.0  0.95042  0.58942  0.43177  1.0000
  O   O20       1.0  0.54958  0.91058  0.43177  1.0000
  O   O21       1.0  0.95042  0.91058  0.93177  1.0000
  O   O22       1.0  0.54958  0.58942  0.93177  1.0000
  O   O23       1.0  0.04958  0.41058  0.56823  1.0000
  O   O24       1.0  0.45042  0.08942  0.56823  1.0000
  O   O25       1.0  0.07860  0.18812  0.02812  1.0000
  O   O26       1.0  0.42140  0.31188  0.02812  1.0000
  O   O27       1.0  0.92140  0.68812  0.47188  1.0000
  O   O28       1.0  0.57860  0.81188  0.47188  1.0000
  O   O29       1.0  0.92140  0.81188  0.97188  1.0000
  O   O30       1.0  0.57860  0.68812  0.97188  1.0000
  O   O31       1.0  0.07860  0.31188  0.52812  1.0000
  O   O32       1.0  0.42140  0.18812  0.52812  1.0000
  C   C1        1.0  0.19560  0.99637  0.29220  1.0000
  C   C2        1.0  0.30440  0.50363  0.29220  1.0000
  C   C3        1.0  0.80440  0.49637  0.20780  1.0000
  C   C4        1.0  0.69560  0.00363  0.20780  1.0000
  C   C5        1.0  0.80440  0.00363  0.70780  1.0000
  C   C6        1.0  0.69560  0.49637  0.70780  1.0000
  C   C7        1.0  0.19560  0.50363  0.79220  1.0000
  C   C8        1.0  0.30440  0.99637  0.79220  1.0000
  H   H1        1.0  0.25770  0.02600  0.23510  1.0000
  H   H2        1.0  0.24230  0.47400  0.23510  1.0000
  H   H3        1.0  0.74230  0.52600  0.26490  1.0000
  H   H4        1.0  0.75770  0.97400  0.26490  1.0000
  H   H5        1.0  0.74230  0.97400  0.76490  1.0000
  H   H6        1.0  0.75770  0.52600  0.76490  1.0000
  H   H7        1.0  0.25770  0.47400  0.73510  1.0000
  H   H8        1.0  0.24230  0.02600  0.73510  1.0000
  C   C9        1.0  0.08640  0.13452  0.98521  1.0000
  C   C10       1.0  0.41360  0.36548  0.98521  1.0000
  C   C11       1.0  0.91360  0.63452  0.51479  1.0000
  C   C12       1.0  0.58640  0.86548  0.51479  1.0000
  C   C13       1.0  0.91360  0.86548  0.01479  1.0000
  C   C14       1.0  0.58640  0.63452  0.01479  1.0000
  C   C15       1.0  0.08640  0.36548  0.48521  1.0000
  C   C16       1.0  0.41360  0.13452  0.48521  1.0000
  H   H9        1.0  0.12330  0.12700  0.88110  1.0000
  H   H10       1.0  0.37670  0.37300  0.88110  1.0000
  H   H11       1.0  0.87670  0.62700  0.61890  1.0000
  H   H12       1.0  0.62330  0.87300  0.61890  1.0000
  H   H13       1.0  0.87670  0.87300  0.11890  1.0000
  H   H14       1.0  0.62330  0.62700  0.11890  1.0000
  H   H15       1.0  0.12330  0.37300  0.38110  1.0000
  H   H16       1.0  0.37670  0.12700  0.38110  1.0000
