data_image0
_chemical_formula_structural       CuO8N2C8H2C2H2C2H2C2
_chemical_formula_sum              "Cu1 O8 N2 C14 H6"
_cell_length_a       6.9758
_cell_length_b       7.5074
_cell_length_c       11.3187
_cell_angle_alpha    85.179
_cell_angle_beta     72.204
_cell_angle_gamma    66.03

_space_group_name_H-M_alt    "P 1"
_space_group_IT_number       1

loop_
  _space_group_symop_operation_xyz
  'x, y, z'

loop_
  _atom_site_type_symbol
  _atom_site_label
  _atom_site_symmetry_multiplicity
  _atom_site_fract_x
  _atom_site_fract_y
  _atom_site_fract_z
  _atom_site_occupancy
  Cu  Cu1       1.0  0.00000  0.00000  0.50000  1.0000
  O   O1        1.0  0.81950  0.92460  0.64760  1.0000
  O   O2        1.0  0.18050  0.07540  0.35240  1.0000
  O   O3        1.0  0.47180  0.99050  0.75590  1.0000
  O   O4        1.0  0.52820  0.00950  0.24410  1.0000
  O   O5        1.0  0.00070  0.24310  0.67030  1.0000
  O   O6        1.0  0.99930  0.75690  0.32970  1.0000
  O   O7        1.0  0.09200  0.41510  0.77670  1.0000
  O   O8        1.0  0.90800  0.58490  0.22330  1.0000
  N   N1        1.0  0.71740  0.16060  0.47600  1.0000
  N   N2        1.0  0.28260  0.83940  0.52400  1.0000
  C   C1        1.0  0.61380  0.01710  0.66810  1.0000
  C   C2        1.0  0.38620  0.98290  0.33190  1.0000
  C   C3        1.0  0.54370  0.16410  0.57330  1.0000
  C   C4        1.0  0.45630  0.83590  0.42670  1.0000
  C   C5        1.0  0.33100  0.28610  0.57670  1.0000
  C   C6        1.0  0.66900  0.71390  0.42330  1.0000
  C   C7        1.0  0.30170  0.40130  0.47570  1.0000
  C   C8        1.0  0.69830  0.59870  0.52430  1.0000
  H   H1        1.0  0.16050  0.48620  0.47600  1.0000
  H   H2        1.0  0.83950  0.51380  0.52400  1.0000
  C   C9        1.0  0.47720  0.39210  0.37550  1.0000
  C   C10       1.0  0.52280  0.60790  0.62450  1.0000
  H   H3        1.0  0.45590  0.46690  0.30720  1.0000
  H   H4        1.0  0.54410  0.53310  0.69280  1.0000
  C   C11       1.0  0.68590  0.26940  0.37850  1.0000
  C   C12       1.0  0.31410  0.73060  0.62150  1.0000
  H   H5        1.0  0.80650  0.26230  0.31160  1.0000
  H   H6        1.0  0.19350  0.73770  0.68840  1.0000
  C   C13       1.0  0.12540  0.31150  0.68610  1.0000
  C   C14       1.0  0.87460  0.68850  0.31390  1.0000
