data_image0
_chemical_formula_structural       C4HCHCHC5HCHCHCCuN2O8
_chemical_formula_sum              "C14 H6 Cu1 N2 O8"
_cell_length_a       6.7564
_cell_length_b       8.3947
_cell_length_c       15.916
_cell_angle_alpha    79.24
_cell_angle_beta     89.65
_cell_angle_gamma    81.465

_space_group_name_H-M_alt    "P 1"
_space_group_IT_number       1

loop_
  _space_group_symop_operation_xyz
  'x, y, z'

loop_
  _atom_site_type_symbol
  _atom_site_label
  _atom_site_symmetry_multiplicity
  _atom_site_fract_x
  _atom_site_fract_y
  _atom_site_fract_z
  _atom_site_occupancy
  C   C1        1.0  0.86370  0.05390  0.40320  1.0000
  C   C2        1.0  0.87490  0.22550  0.41380  1.0000
  C   C3        1.0  0.01440  0.32130  0.37850  1.0000
  C   C4        1.0  0.00200  0.47840  0.39860  1.0000
  H   H1        1.0  0.09720  0.54460  0.37830  1.0000
  C   C5        1.0  0.84860  0.53510  0.44860  1.0000
  H   H2        1.0  0.83700  0.64000  0.46110  1.0000
  C   C6        1.0  0.71530  0.43230  0.47900  1.0000
  H   H3        1.0  0.61260  0.46850  0.51320  1.0000
  C   C7        1.0  0.17660  0.27100  0.31760  1.0000
  C   C8        1.0  0.19630  0.20840  0.58550  1.0000
  C   C9        1.0  0.19480  0.03060  0.57290  1.0000
  C   C10       1.0  0.04890  0.93580  0.60690  1.0000
  C   C11       1.0  0.06310  0.77820  0.58980  1.0000
  H   H4        1.0  0.96780  0.71240  0.61060  1.0000
  C   C12       1.0  0.21660  0.71990  0.54230  1.0000
  H   H5        1.0  0.22740  0.61390  0.53140  1.0000
  C   C13       1.0  0.35840  0.82150  0.51010  1.0000
  H   H6        1.0  0.46260  0.78250  0.47740  1.0000
  C   C14       1.0  0.88900  0.98840  0.66800  1.0000
  Cu  Cu1       1.0  0.53134  0.13135  0.49357  1.0000
  N   N1        1.0  0.72580  0.28500  0.46200  1.0000
  N   N2        1.0  0.34460  0.97280  0.52610  1.0000
  O   O1        1.0  0.71640  0.99070  0.43450  1.0000
  O   O2        1.0  0.00160  0.98400  0.36350  1.0000
  O   O3        1.0  0.35400  0.24390  0.34420  1.0000
  O   O4        1.0  0.11410  0.27160  0.24420  1.0000
  O   O5        1.0  0.34500  0.27190  0.55100  1.0000
  O   O6        1.0  0.06180  0.27250  0.62330  1.0000
  O   O7        1.0  0.94640  0.98290  0.74410  1.0000
  O   O8        1.0  0.71140  0.02140  0.64120  1.0000
