data_image0
_chemical_formula_structural       Cu2O16N4C16H4C4H4C4H4C4
_chemical_formula_sum              "Cu2 O16 N4 C28 H12"
_cell_length_a       11.3777
_cell_length_b       6.2596
_cell_length_c       20.92
_cell_angle_alpha    90
_cell_angle_beta     121.649
_cell_angle_gamma    90

_space_group_name_H-M_alt    "P 1"
_space_group_IT_number       1

loop_
  _space_group_symop_operation_xyz
  'x, y, z'

loop_
  _atom_site_type_symbol
  _atom_site_label
  _atom_site_symmetry_multiplicity
  _atom_site_fract_x
  _atom_site_fract_y
  _atom_site_fract_z
  _atom_site_occupancy
  Cu  Cu1       1.0  0.00000  0.50000  0.00000  1.0000
  Cu  Cu2       1.0  0.00000  0.00000  0.50000  1.0000
  O   O1        1.0  0.04270  0.66940  0.08710  1.0000
  O   O2        1.0  0.95730  0.16940  0.41290  1.0000
  O   O3        1.0  0.95730  0.33060  0.91290  1.0000
  O   O4        1.0  0.04270  0.83060  0.58710  1.0000
  O   O5        1.0  0.17660  0.93850  0.15680  1.0000
  O   O6        1.0  0.82340  0.43850  0.34320  1.0000
  O   O7        1.0  0.82340  0.06150  0.84320  1.0000
  O   O8        1.0  0.17660  0.56150  0.65680  1.0000
  O   O9        1.0  0.42280  0.13180  0.15890  1.0000
  O   O10       1.0  0.57720  0.63180  0.34110  1.0000
  O   O11       1.0  0.57720  0.86820  0.84110  1.0000
  O   O12       1.0  0.42280  0.36820  0.65890  1.0000
  O   O13       1.0  0.26200  0.38060  0.09510  1.0000
  O   O14       1.0  0.73800  0.88060  0.40490  1.0000
  O   O15       1.0  0.73800  0.61940  0.90490  1.0000
  O   O16       1.0  0.26200  0.11940  0.59510  1.0000
  N   N1        1.0  0.09430  0.73270  0.98080  1.0000
  N   N2        1.0  0.90570  0.23270  0.51920  1.0000
  N   N3        1.0  0.90570  0.26730  0.01920  1.0000
  N   N4        1.0  0.09430  0.76730  0.48080  1.0000
  C   C1        1.0  0.12450  0.82830  0.10000  1.0000
  C   C2        1.0  0.87550  0.32830  0.40000  1.0000
  C   C3        1.0  0.87550  0.17170  0.90000  1.0000
  C   C4        1.0  0.12450  0.67170  0.60000  1.0000
  C   C5        1.0  0.15400  0.87070  0.03890  1.0000
  C   C6        1.0  0.84600  0.37070  0.46110  1.0000
  C   C7        1.0  0.84600  0.12930  0.96110  1.0000
  C   C8        1.0  0.15400  0.62930  0.53890  1.0000
  C   C9        1.0  0.23440  0.03930  0.03960  1.0000
  C   C10       1.0  0.76560  0.53930  0.46040  1.0000
  C   C11       1.0  0.76560  0.96070  0.96040  1.0000
  C   C12       1.0  0.23440  0.46070  0.53960  1.0000
  C   C13       1.0  0.24830  0.06090  0.97850  1.0000
  C   C14       1.0  0.75170  0.56090  0.52150  1.0000
  C   C15       1.0  0.75170  0.93910  0.02150  1.0000
  C   C16       1.0  0.24830  0.43910  0.47850  1.0000
  H   H1        1.0  0.29910  0.17400  0.97630  1.0000
  H   H2        1.0  0.70090  0.67400  0.52370  1.0000
  H   H3        1.0  0.70090  0.82600  0.02370  1.0000
  H   H4        1.0  0.29910  0.32600  0.47630  1.0000
  C   C17       1.0  0.18730  0.91570  0.92050  1.0000
  C   C18       1.0  0.81270  0.41570  0.57950  1.0000
  C   C19       1.0  0.81270  0.08430  0.07950  1.0000
  C   C20       1.0  0.18730  0.58430  0.42050  1.0000
  H   H5        1.0  0.19810  0.92820  0.87960  1.0000
  H   H6        1.0  0.80190  0.42820  0.62040  1.0000
  H   H7        1.0  0.80190  0.07180  0.12040  1.0000
  H   H8        1.0  0.19810  0.57180  0.37960  1.0000
  C   C21       1.0  0.11110  0.75350  0.92400  1.0000
  C   C22       1.0  0.88890  0.25350  0.57600  1.0000
  C   C23       1.0  0.88890  0.24650  0.07600  1.0000
  C   C24       1.0  0.11110  0.74650  0.42400  1.0000
  H   H9        1.0  0.07000  0.65520  0.88490  1.0000
  H   H10       1.0  0.93000  0.15520  0.61510  1.0000
  H   H11       1.0  0.93000  0.34480  0.11510  1.0000
  H   H12       1.0  0.07000  0.84480  0.38490  1.0000
  C   C25       1.0  0.30960  0.19630  0.10370  1.0000
  C   C26       1.0  0.69040  0.69630  0.39630  1.0000
  C   C27       1.0  0.69040  0.80370  0.89630  1.0000
  C   C28       1.0  0.30960  0.30370  0.60370  1.0000
