data_image0
_chemical_formula_structural       C8H2C2H2C2H2C2CuN2O8
_chemical_formula_sum              "C14 H6 Cu1 N2 O8"
_cell_length_a       6.2073
_cell_length_b       9.9639
_cell_length_c       11.8651
_cell_angle_alpha    68.949
_cell_angle_beta     80.564
_cell_angle_gamma    88.04

_space_group_name_H-M_alt    "P 1"
_space_group_IT_number       1

loop_
  _space_group_symop_operation_xyz
  'x, y, z'

loop_
  _atom_site_type_symbol
  _atom_site_label
  _atom_site_symmetry_multiplicity
  _atom_site_fract_x
  _atom_site_fract_y
  _atom_site_fract_z
  _atom_site_occupancy
  C   C1        1.0  0.35200  0.84850  0.94930  1.0000
  C   C2        1.0  0.64800  0.15150  0.05070  1.0000
  C   C3        1.0  0.35920  0.84250  0.07810  1.0000
  C   C4        1.0  0.64080  0.15750  0.92190  1.0000
  C   C5        1.0  0.51230  0.76950  0.14930  1.0000
  C   C6        1.0  0.48770  0.23050  0.85070  1.0000
  C   C7        1.0  0.50220  0.78230  0.26310  1.0000
  C   C8        1.0  0.49780  0.21770  0.73690  1.0000
  H   H1        1.0  0.60570  0.73790  0.31200  1.0000
  H   H2        1.0  0.39430  0.26210  0.68800  1.0000
  C   C9        1.0  0.34130  0.85970  0.30380  1.0000
  C   C10       1.0  0.65870  0.14030  0.69620  1.0000
  H   H3        1.0  0.33410  0.86710  0.38030  1.0000
  H   H4        1.0  0.66590  0.13290  0.61970  1.0000
  C   C11       1.0  0.19040  0.92620  0.22940  1.0000
  C   C12       1.0  0.80960  0.07380  0.77060  1.0000
  H   H5        1.0  0.07860  0.97690  0.25710  1.0000
  H   H6        1.0  0.92140  0.02310  0.74290  1.0000
  C   C13       1.0  0.68520  0.67570  0.11100  1.0000
  C   C14       1.0  0.31480  0.32430  0.88900  1.0000
  Cu  Cu1       1.0  0.00000  0.00000  0.00000  1.0000
  N   N1        1.0  0.20200  0.91910  0.11850  1.0000
  N   N2        1.0  0.79800  0.08090  0.88150  1.0000
  O   O1        1.0  0.20800  0.92900  0.89553  1.0000
  O   O2        1.0  0.79200  0.07100  0.10447  1.0000
  O   O3        1.0  0.48120  0.77830  0.90460  1.0000
  O   O4        1.0  0.51880  0.22170  0.09540  1.0000
  O   O5        1.0  0.62310  0.55210  0.12190  1.0000
  O   O6        1.0  0.37690  0.44790  0.87810  1.0000
  O   O7        1.0  0.87650  0.72410  0.07860  1.0000
  O   O8        1.0  0.12350  0.27590  0.92140  1.0000
