data_image0
_chemical_formula_structural       C8H2C2H2C2H2C2CuN2O8
_chemical_formula_sum              "C14 H6 Cu1 N2 O8"
_cell_length_a       6.7282
_cell_length_b       10.992
_cell_length_c       11.4866
_cell_angle_alpha    91.651
_cell_angle_beta     103.965
_cell_angle_gamma    91.524

_space_group_name_H-M_alt    "P 1"
_space_group_IT_number       1

loop_
  _space_group_symop_operation_xyz
  'x, y, z'

loop_
  _atom_site_type_symbol
  _atom_site_label
  _atom_site_symmetry_multiplicity
  _atom_site_fract_x
  _atom_site_fract_y
  _atom_site_fract_z
  _atom_site_occupancy
  C   C1        1.0  0.11630  0.40930  0.37480  1.0000
  C   C2        1.0  0.88370  0.59070  0.62520  1.0000
  C   C3        1.0  0.09520  0.54580  0.38250  1.0000
  C   C4        1.0  0.90480  0.45420  0.61750  1.0000
  C   C5        1.0  0.91770  0.60530  0.33100  1.0000
  C   C6        1.0  0.08230  0.39470  0.66900  1.0000
  C   C7        1.0  0.91850  0.73060  0.35080  1.0000
  C   C8        1.0  0.08150  0.26940  0.64920  1.0000
  H   H1        1.0  0.80170  0.77340  0.31850  1.0000
  H   H2        1.0  0.19830  0.22660  0.68150  1.0000
  C   C9        1.0  0.09130  0.79180  0.41800  1.0000
  C   C10       1.0  0.90870  0.20820  0.58200  1.0000
  H   H3        1.0  0.09180  0.87560  0.43210  1.0000
  H   H4        1.0  0.90820  0.12440  0.56790  1.0000
  C   C11       1.0  0.26340  0.72700  0.46390  1.0000
  C   C12       1.0  0.73660  0.27300  0.53610  1.0000
  H   H5        1.0  0.38100  0.76830  0.50840  1.0000
  H   H6        1.0  0.61900  0.23170  0.49160  1.0000
  C   C13       1.0  0.72670  0.54390  0.25170  1.0000
  C   C14       1.0  0.27330  0.45610  0.74830  1.0000
  Cu  Cu1       1.0  0.50000  0.50000  0.50000  1.0000
  N   N1        1.0  0.26570  0.60670  0.44629  1.0000
  N   N2        1.0  0.73430  0.39330  0.55371  1.0000
  O   O1        1.0  0.29440  0.37095  0.42478  1.0000
  O   O2        1.0  0.70560  0.62905  0.57522  1.0000
  O   O3        1.0  0.96530  0.34517  0.32498  1.0000
  O   O4        1.0  0.03470  0.65483  0.67502  1.0000
  O   O5        1.0  0.57910  0.52414  0.29990  1.0000
  O   O6        1.0  0.42090  0.47586  0.70010  1.0000
  O   O7        1.0  0.72210  0.52659  0.14381  1.0000
  O   O8        1.0  0.27790  0.47341  0.85619  1.0000
