data_image0
_chemical_formula_structural       CuO8N2C8H2C2H2C2H2C2
_chemical_formula_sum              "Cu1 O8 N2 C14 H6"
_cell_length_a       6.1845
_cell_length_b       8.1568
_cell_length_c       10.9703
_cell_angle_alpha    70.148
_cell_angle_beta     82.111
_cell_angle_gamma    83.34

_space_group_name_H-M_alt    "P 1"
_space_group_IT_number       1

loop_
  _space_group_symop_operation_xyz
  'x, y, z'

loop_
  _atom_site_type_symbol
  _atom_site_label
  _atom_site_symmetry_multiplicity
  _atom_site_fract_x
  _atom_site_fract_y
  _atom_site_fract_z
  _atom_site_occupancy
  Cu  Cu1       1.0  0.00000  0.50000  0.00000  1.0000
  O   O1        1.0  0.18776  0.29099  0.07554  1.0000
  O   O2        1.0  0.81224  0.70901  0.92446  1.0000
  O   O3        1.0  0.45910  0.19622  0.20125  1.0000
  O   O4        1.0  0.54090  0.80378  0.79875  1.0000
  O   O5        1.0  0.55003  0.34259  0.40836  1.0000
  O   O6        1.0  0.44997  0.65741  0.59164  1.0000
  O   O7        1.0  0.83277  0.40642  0.25439  1.0000
  O   O8        1.0  0.16723  0.59358  0.74561  1.0000
  N   N1        1.0  0.19820  0.61460  0.06584  1.0000
  N   N2        1.0  0.80180  0.38540  0.93416  1.0000
  C   C1        1.0  0.33150  0.31270  0.14036  1.0000
  C   C2        1.0  0.66850  0.68730  0.85964  1.0000
  C   C3        1.0  0.34150  0.49789  0.13883  1.0000
  C   C4        1.0  0.65850  0.50211  0.86117  1.0000
  C   C5        1.0  0.48390  0.54730  0.20496  1.0000
  C   C6        1.0  0.51610  0.45270  0.79504  1.0000
  C   C7        1.0  0.47830  0.72490  0.19053  1.0000
  C   C8        1.0  0.52170  0.27510  0.80947  1.0000
  H   H1        1.0  0.57430  0.76340  0.23140  1.0000
  H   H2        1.0  0.42570  0.23660  0.76860  1.0000
  C   C9        1.0  0.33080  0.84240  0.11592  1.0000
  C   C10       1.0  0.66920  0.15760  0.88408  1.0000
  H   H3        1.0  0.32540  0.96040  0.10650  1.0000
  H   H4        1.0  0.67460  0.03960  0.89350  1.0000
  C   C11       1.0  0.19080  0.78260  0.05521  1.0000
  C   C12       1.0  0.80920  0.21740  0.94479  1.0000
  H   H5        1.0  0.08920  0.86140  0.00580  1.0000
  H   H6        1.0  0.91080  0.13860  0.99420  1.0000
  C   C13       1.0  0.63460  0.41830  0.29603  1.0000
  C   C14       1.0  0.36540  0.58170  0.70397  1.0000
