data_image0
_chemical_formula_structural       Mo15P6O63C3H6C3H6C6H3C6H3C3H3C3H3
_chemical_formula_sum              "Mo15 P6 O63 C24 H24"
_cell_length_a       11.1778
_cell_length_b       11.1778
_cell_length_c       27.641
_cell_angle_alpha    90
_cell_angle_beta     90
_cell_angle_gamma    120

_space_group_name_H-M_alt    "P 1"
_space_group_IT_number       1

loop_
  _space_group_symop_operation_xyz
  'x, y, z'

loop_
  _atom_site_type_symbol
  _atom_site_label
  _atom_site_symmetry_multiplicity
  _atom_site_fract_x
  _atom_site_fract_y
  _atom_site_fract_z
  _atom_site_occupancy
  Mo  Mo1       1.0  0.15857  0.71566  0.31185  1.0000
  Mo  Mo2       1.0  0.28434  0.44291  0.97852  1.0000
  Mo  Mo3       1.0  0.55709  0.84143  0.64518  1.0000
  Mo  Mo4       1.0  0.94565  0.81303  0.36164  1.0000
  Mo  Mo5       1.0  0.18697  0.13262  0.02831  1.0000
  Mo  Mo6       1.0  0.86738  0.05435  0.69497  1.0000
  Mo  Mo7       1.0  0.67841  0.53954  0.41701  1.0000
  Mo  Mo8       1.0  0.46046  0.13887  0.08368  1.0000
  Mo  Mo9       1.0  0.86113  0.32159  0.75034  1.0000
  Mo  Mo10      1.0  0.06339  0.39100  0.35212  1.0000
  Mo  Mo11      1.0  0.60900  0.67239  0.01879  1.0000
  Mo  Mo12      1.0  0.32761  0.93661  0.68545  1.0000
  Mo  Mo13      1.0  0.70357  0.25655  0.39677  1.0000
  Mo  Mo14      1.0  0.74345  0.44702  0.06344  1.0000
  Mo  Mo15      1.0  0.55298  0.29643  0.73010  1.0000
  P   P1        1.0  0.68060  0.18970  0.64054  1.0000
  P   P2        1.0  0.81030  0.49090  0.30721  1.0000
  P   P3        1.0  0.50910  0.31940  0.97387  1.0000
  P   P4        1.0  0.00280  0.58390  0.42716  1.0000
  P   P5        1.0  0.41610  0.41890  0.09383  1.0000
  P   P6        1.0  0.58110  0.99720  0.76049  1.0000
  O   O1        1.0  0.30670  0.85290  0.33390  1.0000
  O   O2        1.0  0.14710  0.45380  0.00057  1.0000
  O   O3        1.0  0.54620  0.69330  0.66723  1.0000
  O   O4        1.0  0.19820  0.71190  0.25160  1.0000
  O   O5        1.0  0.28810  0.48630  0.91827  1.0000
  O   O6        1.0  0.51370  0.80180  0.58493  1.0000
  O   O7        1.0  0.55870  0.04020  0.64190  1.0000
  O   O8        1.0  0.95980  0.51850  0.30857  1.0000
  O   O9        1.0  0.48150  0.44130  0.97523  1.0000
  O   O10       1.0  0.19670  0.57540  0.33730  1.0000
  O   O11       1.0  0.42460  0.62130  0.00397  1.0000
  O   O12       1.0  0.37870  0.80330  0.67063  1.0000
  O   O13       1.0  0.03990  0.31370  0.29670  1.0000
  O   O14       1.0  0.68630  0.72620  0.96337  1.0000
  O   O15       1.0  0.27380  0.96010  0.63003  1.0000
  O   O16       1.0  0.15580  0.33060  0.38180  1.0000
  O   O17       1.0  0.66940  0.82520  0.04847  1.0000
  O   O18       1.0  0.17480  0.84420  0.71513  1.0000
  O   O19       1.0  0.88090  0.27730  0.37770  1.0000
  O   O20       1.0  0.72270  0.60360  0.04437  1.0000
  O   O21       1.0  0.39640  0.11910  0.71103  1.0000
  O   O22       1.0  0.07700  0.50190  0.42390  1.0000
  O   O23       1.0  0.49810  0.57510  0.09057  1.0000
  O   O24       1.0  0.42490  0.92300  0.75723  1.0000
  O   O25       1.0  0.70120  0.20630  0.45530  1.0000
  O   O26       1.0  0.79370  0.49490  0.12197  1.0000
  O   O27       1.0  0.50510  0.29880  0.78863  1.0000
  O   O28       1.0  0.59430  0.34700  0.40130  1.0000
  O   O29       1.0  0.65300  0.24730  0.06797  1.0000
  O   O30       1.0  0.75270  0.40570  0.73463  1.0000
  O   O31       1.0  0.62690  0.28780  0.65200  1.0000
  O   O32       1.0  0.71220  0.33910  0.31867  1.0000
  O   O33       1.0  0.66090  0.37310  0.98533  1.0000
  O   O34       1.0  0.84510  0.48520  0.42190  1.0000
  O   O35       1.0  0.51480  0.35990  0.08857  1.0000
  O   O36       1.0  0.64010  0.15490  0.75523  1.0000
  O   O37       1.0  0.55060  0.56600  0.39450  1.0000
  O   O38       1.0  0.43400  0.98460  0.06117  1.0000
  O   O39       1.0  0.01540  0.44940  0.72783  1.0000
  O   O40       1.0  0.05610  0.69820  0.38850  1.0000
  O   O41       1.0  0.30180  0.35790  0.05517  1.0000
  O   O42       1.0  0.64210  0.94390  0.72183  1.0000
  O   O43       1.0  0.58990  0.10410  0.36960  1.0000
  O   O44       1.0  0.89590  0.48580  0.03627  1.0000
  O   O45       1.0  0.51420  0.41010  0.70293  1.0000
  O   O46       1.0  0.85300  0.87240  0.32970  1.0000
  O   O47       1.0  0.12760  0.98060  0.99637  1.0000
  O   O48       1.0  0.01940  0.14700  0.66303  1.0000
  O   O49       1.0  0.65590  0.53270  0.47790  1.0000
  O   O50       1.0  0.46730  0.12320  0.14457  1.0000
  O   O51       1.0  0.87680  0.34410  0.81123  1.0000
  O   O52       1.0  0.79580  0.20970  0.67600  1.0000
  O   O53       1.0  0.79030  0.58610  0.34267  1.0000
  O   O54       1.0  0.41390  0.20420  0.00933  1.0000
  O   O55       1.0  0.83280  0.72900  0.41660  1.0000
  O   O56       1.0  0.27100  0.10380  0.08327  1.0000
  O   O57       1.0  0.89620  0.16720  0.74993  1.0000
  O   O58       1.0  0.07280  0.95920  0.38800  1.0000
  O   O59       1.0  0.04080  0.11360  0.05467  1.0000
  O   O60       1.0  0.88640  0.92720  0.72133  1.0000
  O   O61       1.0  0.04090  0.79190  0.30640  1.0000
  O   O62       1.0  0.20810  0.24900  0.97307  1.0000
  O   O63       1.0  0.75100  0.95910  0.63973  1.0000
  C   C1        1.0  0.75640  0.22600  0.58090  1.0000
  C   C2        1.0  0.77400  0.53040  0.24757  1.0000
  C   C3        1.0  0.46960  0.24360  0.91423  1.0000
  H   H1        1.0  0.78090  0.15480  0.57260  1.0000
  H   H2        1.0  0.84520  0.62610  0.23927  1.0000
  H   H3        1.0  0.37390  0.21910  0.90593  1.0000
  H   H4        1.0  0.68630  0.21840  0.55740  1.0000
  H   H5        1.0  0.78160  0.46790  0.22407  1.0000
  H   H6        1.0  0.53210  0.31370  0.89073  1.0000
  C   C4        1.0  0.03060  0.66870  0.48530  1.0000
  C   C5        1.0  0.33130  0.36190  0.15197  1.0000
  C   C6        1.0  0.63810  0.96940  0.81863  1.0000
  H   H7        1.0  0.12450  0.75070  0.48550  1.0000
  H   H8        1.0  0.24930  0.37380  0.15217  1.0000
  H   H9        1.0  0.62620  0.87550  0.81883  1.0000
  H   H10       1.0  0.96390  0.70200  0.48860  1.0000
  H   H11       1.0  0.29800  0.26190  0.15527  1.0000
  H   H12       1.0  0.73810  0.03610  0.82193  1.0000
  C   C7        1.0  0.01640  0.58130  0.52850  1.0000
  C   C8        1.0  0.41870  0.43510  0.19517  1.0000
  C   C9        1.0  0.56490  0.98360  0.86183  1.0000
  C   C10       1.0  0.89550  0.45240  0.53620  1.0000
  C   C11       1.0  0.54760  0.44310  0.20287  1.0000
  C   C12       1.0  0.55690  0.10450  0.86953  1.0000
  H   H13       1.0  0.81980  0.42190  0.51460  1.0000
  H   H14       1.0  0.57810  0.39790  0.18127  1.0000
  H   H15       1.0  0.60210  0.18020  0.84793  1.0000
  C   C13       1.0  0.88630  0.36940  0.57560  1.0000
  C   C14       1.0  0.63060  0.51690  0.24227  1.0000
  C   C15       1.0  0.48310  0.11370  0.90893  1.0000
  C   C16       1.0  0.99790  0.41750  0.60770  1.0000
  C   C17       1.0  0.58250  0.58040  0.27437  1.0000
  C   C18       1.0  0.41960  0.00210  0.94103  1.0000
  H   H16       1.0  0.99410  0.36120  0.63410  1.0000
  H   H17       1.0  0.63880  0.63290  0.30077  1.0000
  H   H18       1.0  0.36710  0.00590  0.96743  1.0000
  C   C19       1.0  0.11280  0.54540  0.60140  1.0000
  C   C20       1.0  0.45460  0.56740  0.26807  1.0000
  C   C21       1.0  0.43260  0.88720  0.93473  1.0000
  H   H19       1.0  0.18590  0.57780  0.62430  1.0000
  H   H20       1.0  0.42220  0.60810  0.29097  1.0000
  H   H21       1.0  0.39190  0.81410  0.95763  1.0000
  C   C22       1.0  0.12430  0.62820  0.56220  1.0000
  C   C23       1.0  0.37180  0.49610  0.22887  1.0000
  C   C24       1.0  0.50390  0.87570  0.89553  1.0000
  H   H22       1.0  0.20470  0.71610  0.55830  1.0000
  H   H23       1.0  0.28390  0.48860  0.22497  1.0000
  H   H24       1.0  0.51140  0.79530  0.89163  1.0000
