data_image0
_chemical_formula_structural       C6H2C2H2C2H2C4H2C8H2C2H2C2H2C4H2C8H2C2H2C2H2C4H2C8H2C2H2C2H2C4H2C8H2C2H2C2H2C4H2C8H2C2H2C2H2C4H2C8H2C2H2C2H2C4H2C8H2C6H2C2H2C2H2Eu4N8H4N8H4N8H4N8H4O32
_chemical_formula_sum              "C128 H80 Eu4 N32 O32"
_cell_length_a       11.139
_cell_length_b       11.154
_cell_length_c       27.17
_cell_angle_alpha    79.687
_cell_angle_beta     86.145
_cell_angle_gamma    89.942

_space_group_name_H-M_alt    "P 1"
_space_group_IT_number       1

loop_
  _space_group_symop_operation_xyz
  'x, y, z'

loop_
  _atom_site_type_symbol
  _atom_site_label
  _atom_site_symmetry_multiplicity
  _atom_site_fract_x
  _atom_site_fract_y
  _atom_site_fract_z
  _atom_site_occupancy
  C   C1        1.0  0.49270  0.25950  0.04680  1.0000
  C   C2        1.0  0.50730  0.74050  0.95320  1.0000
  C   C3        1.0  0.45850  0.13850  0.06830  1.0000
  C   C4        1.0  0.54150  0.86150  0.93170  1.0000
  C   C5        1.0  0.40400  0.06400  0.04620  1.0000
  C   C6        1.0  0.59600  0.93600  0.95380  1.0000
  H   H1        1.0  0.38160  0.09120  0.01380  1.0000
  H   H2        1.0  0.61840  0.90880  0.98620  1.0000
  C   C7        1.0  0.37700  0.93700  0.06940  1.0000
  C   C8        1.0  0.62300  0.06300  0.93060  1.0000
  H   H3        1.0  0.34920  0.88320  0.05020  1.0000
  H   H4        1.0  0.65080  0.11680  0.94980  1.0000
  C   C9        1.0  0.39200  0.89900  0.11790  1.0000
  C   C10       1.0  0.60800  0.10100  0.88210  1.0000
  H   H5        1.0  0.37190  0.81850  0.13270  1.0000
  H   H6        1.0  0.62810  0.18150  0.86730  1.0000
  C   C11       1.0  0.43690  0.97930  0.14690  1.0000
  C   C12       1.0  0.56310  0.02070  0.85310  1.0000
  C   C13       1.0  0.47370  0.09470  0.12330  1.0000
  C   C14       1.0  0.52630  0.90530  0.87670  1.0000
  H   H7        1.0  0.50870  0.14650  0.14170  1.0000
  H   H8        1.0  0.49130  0.85350  0.85830  1.0000
  C   C15       1.0  0.44460  0.93790  0.20110  1.0000
  C   C16       1.0  0.55540  0.06210  0.79890  1.0000
  C   C17       1.0  0.42860  0.92270  0.28290  1.0000
  C   C18       1.0  0.57140  0.07730  0.71710  1.0000
  C   C19       1.0  0.40690  0.94900  0.33290  1.0000
  C   C20       1.0  0.59310  0.05100  0.66710  1.0000
  C   C21       1.0  0.35120  0.85480  0.36930  1.0000
  C   C22       1.0  0.64880  0.14520  0.63070  1.0000
  H   H9        1.0  0.32400  0.78400  0.35990  1.0000
  H   H10       1.0  0.67600  0.21600  0.64010  1.0000
  C   C23       1.0  0.33720  0.86930  0.42010  1.0000
  C   C24       1.0  0.66280  0.13070  0.57990  1.0000
  H   H11       1.0  0.30160  0.80620  0.44360  1.0000
  H   H12       1.0  0.69840  0.19380  0.55640  1.0000
  C   C25       1.0  0.37400  0.97240  0.43630  1.0000
  C   C26       1.0  0.62600  0.02760  0.56370  1.0000
  H   H13       1.0  0.36480  0.98070  0.46980  1.0000
  H   H14       1.0  0.63520  0.01930  0.53020  1.0000
  C   C27       1.0  0.42580  0.06320  0.39950  1.0000
  C   C28       1.0  0.57420  0.93680  0.60050  1.0000
  C   C29       1.0  0.44520  0.05550  0.34850  1.0000
  C   C30       1.0  0.55480  0.94450  0.65150  1.0000
  H   H15       1.0  0.48230  0.11900  0.32570  1.0000
  H   H16       1.0  0.51770  0.88100  0.67430  1.0000
  C   C31       1.0  0.47280  0.18150  0.41640  1.0000
  C   C32       1.0  0.52720  0.81850  0.58360  1.0000
  C   C33       1.0  0.78400  0.28960  0.42640  1.0000
  C   C34       1.0  0.21600  0.71040  0.57360  1.0000
  C   C35       1.0  0.91150  0.25140  0.41360  1.0000
  C   C36       1.0  0.08850  0.74860  0.58640  1.0000
  C   C37       1.0  0.97700  0.18100  0.44820  1.0000
  C   C38       1.0  0.02300  0.81900  0.55180  1.0000
  H   H17       1.0  0.94470  0.15220  0.48070  1.0000
  H   H18       1.0  0.05530  0.84780  0.51930  1.0000
  C   C39       1.0  0.09270  0.15300  0.43320  1.0000
  C   C40       1.0  0.90730  0.84700  0.56680  1.0000
  H   H19       1.0  0.14050  0.11070  0.45700  1.0000
  H   H20       1.0  0.85950  0.88930  0.54300  1.0000
  C   C41       1.0  0.14000  0.18600  0.38540  1.0000
  C   C42       1.0  0.86000  0.81400  0.61460  1.0000
  H   H21       1.0  0.21870  0.16380  0.37700  1.0000
  H   H22       1.0  0.78130  0.83620  0.62300  1.0000
  C   C43       1.0  0.07260  0.25180  0.34890  1.0000
  C   C44       1.0  0.92740  0.74820  0.65110  1.0000
  C   C45       1.0  0.95860  0.28650  0.36480  1.0000
  C   C46       1.0  0.04140  0.71350  0.63520  1.0000
  H   H23       1.0  0.91270  0.33490  0.34180  1.0000
  H   H24       1.0  0.08730  0.66510  0.65820  1.0000
  C   C47       1.0  0.11940  0.28310  0.29690  1.0000
  C   C48       1.0  0.88060  0.71690  0.70310  1.0000
  C   C49       1.0  0.12700  0.30890  0.21510  1.0000
  C   C50       1.0  0.87300  0.69110  0.78490  1.0000
  C   C51       1.0  0.09670  0.31330  0.16260  1.0000
  C   C52       1.0  0.90330  0.68670  0.83740  1.0000
  C   C53       1.0  0.18050  0.28130  0.12710  1.0000
  C   C54       1.0  0.81950  0.71870  0.87290  1.0000
  H   H25       1.0  0.25420  0.25030  0.13720  1.0000
  H   H26       1.0  0.74580  0.74970  0.86280  1.0000
  C   C55       1.0  0.15700  0.29430  0.07740  1.0000
  C   C56       1.0  0.84300  0.70570  0.92260  1.0000
  H   H27       1.0  0.21540  0.27310  0.05440  1.0000
  H   H28       1.0  0.78460  0.72690  0.94560  1.0000
  C   C57       1.0  0.04900  0.33800  0.06130  1.0000
  C   C58       1.0  0.95100  0.66200  0.93870  1.0000
  H   H29       1.0  0.03320  0.34550  0.02770  1.0000
  H   H30       1.0  0.96680  0.65450  0.97230  1.0000
  C   C59       1.0  0.96350  0.37080  0.09560  1.0000
  C   C60       1.0  0.03650  0.62920  0.90440  1.0000
  C   C61       1.0  0.98550  0.35570  0.14760  1.0000
  C   C62       1.0  0.01450  0.64430  0.85240  1.0000
  H   H31       1.0  0.92640  0.37400  0.17090  1.0000
  H   H32       1.0  0.07360  0.62600  0.82910  1.0000
  C   C63       1.0  0.84250  0.41690  0.08050  1.0000
  C   C64       1.0  0.15750  0.58310  0.91950  1.0000
  C   C65       1.0  0.72560  0.73700  0.07360  1.0000
  C   C66       1.0  0.27440  0.26300  0.92640  1.0000
  C   C67       1.0  0.76400  0.85360  0.08610  1.0000
  C   C68       1.0  0.23600  0.14640  0.91390  1.0000
  C   C69       1.0  0.82630  0.94780  0.05070  1.0000
  C   C70       1.0  0.17370  0.05220  0.94930  1.0000
  H   H33       1.0  0.84680  0.93380  0.01850  1.0000
  H   H34       1.0  0.15320  0.06620  0.98150  1.0000
  C   C71       1.0  0.85600  0.05500  0.06240  1.0000
  C   C72       1.0  0.14400  0.94500  0.93760  1.0000
  H   H35       1.0  0.89210  0.11620  0.03810  1.0000
  H   H36       1.0  0.10790  0.88380  0.96190  1.0000
  C   C73       1.0  0.83100  0.07400  0.11250  1.0000
  C   C74       1.0  0.16900  0.92600  0.88750  1.0000
  H   H37       1.0  0.85480  0.14660  0.12160  1.0000
  H   H38       1.0  0.14520  0.85340  0.87840  1.0000
  C   C75       1.0  0.77240  0.98770  0.14710  1.0000
  C   C76       1.0  0.22760  0.01230  0.85290  1.0000
  C   C77       1.0  0.73790  0.87860  0.13360  1.0000
  C   C78       1.0  0.26210  0.12140  0.86640  1.0000
  H   H39       1.0  0.69580  0.82070  0.15740  1.0000
  H   H40       1.0  0.30420  0.17930  0.84260  1.0000
  C   C79       1.0  0.74470  0.01140  0.19900  1.0000
  C   C80       1.0  0.25530  0.98860  0.80100  1.0000
  C   C81       1.0  0.72840  0.98390  0.28070  1.0000
  C   C82       1.0  0.27160  0.01610  0.71930  1.0000
  C   C83       1.0  0.72360  0.93390  0.33370  1.0000
  C   C84       1.0  0.27640  0.06610  0.66630  1.0000
  C   C85       1.0  0.76310  0.99970  0.36850  1.0000
  C   C86       1.0  0.23690  0.00030  0.63150  1.0000
  H   H41       1.0  0.80220  0.07410  0.35710  1.0000
  H   H42       1.0  0.19780  0.92590  0.64290  1.0000
  C   C87       1.0  0.74600  0.95800  0.41900  1.0000
  C   C88       1.0  0.25400  0.04200  0.58100  1.0000
  H   H43       1.0  0.77210  0.00460  0.44140  1.0000
  H   H44       1.0  0.22790  0.99540  0.55860  1.0000
  C   C89       1.0  0.68980  0.84500  0.43740  1.0000
  C   C90       1.0  0.31020  0.15500  0.56260  1.0000
  H   H45       1.0  0.67910  0.81600  0.47170  1.0000
  H   H46       1.0  0.32090  0.18400  0.52830  1.0000
  C   C91       1.0  0.65100  0.77830  0.40380  1.0000
  C   C92       1.0  0.34900  0.22170  0.59620  1.0000
  C   C93       1.0  0.67300  0.81920  0.35230  1.0000
  C   C94       1.0  0.32700  0.18080  0.64770  1.0000
  H   H47       1.0  0.65350  0.76900  0.33000  1.0000
  H   H48       1.0  0.34650  0.23100  0.67000  1.0000
  C   C95       1.0  0.59010  0.65680  0.42240  1.0000
  C   C96       1.0  0.40990  0.34320  0.57760  1.0000
  C   C97       1.0  0.28380  0.51610  0.45520  1.0000
  C   C98       1.0  0.71620  0.48390  0.54480  1.0000
  C   C99       1.0  0.17830  0.55570  0.42860  1.0000
  C   C100      1.0  0.82170  0.44430  0.57140  1.0000
  C   C101      1.0  0.08500  0.60100  0.45480  1.0000
  C   C102      1.0  0.91500  0.39900  0.54520  1.0000
  H   H49       1.0  0.09390  0.60710  0.48800  1.0000
  H   H50       1.0  0.90610  0.39290  0.51200  1.0000
  C   C103      1.0  0.98000  0.63700  0.43390  1.0000
  C   C104      1.0  0.02000  0.36300  0.56610  1.0000
  H   H51       1.0  0.91600  0.66360  0.45300  1.0000
  H   H52       1.0  0.08400  0.33640  0.54700  1.0000
  C   C105      1.0  0.97000  0.63400  0.38190  1.0000
  C   C106      1.0  0.03000  0.36600  0.61810  1.0000
  H   H53       1.0  0.89930  0.65820  0.36680  1.0000
  H   H54       1.0  0.10070  0.34180  0.63320  1.0000
  C   C107      1.0  0.06330  0.59510  0.35460  1.0000
  C   C108      1.0  0.93670  0.40490  0.64540  1.0000
  C   C109      1.0  0.16850  0.54870  0.37780  1.0000
  C   C110      1.0  0.83150  0.45130  0.62220  1.0000
  H   H55       1.0  0.22950  0.51450  0.35980  1.0000
  H   H56       1.0  0.77050  0.48550  0.64020  1.0000
  C   C111      1.0  0.04740  0.59110  0.30270  1.0000
  C   C112      1.0  0.95260  0.40890  0.69730  1.0000
  C   C113      1.0  0.07080  0.60960  0.22000  1.0000
  C   C114      1.0  0.92920  0.39040  0.78000  1.0000
  C   C115      1.0  0.12050  0.63150  0.16730  1.0000
  C   C116      1.0  0.87950  0.36850  0.83270  1.0000
  C   C117      1.0  0.22560  0.58720  0.15000  1.0000
  C   C118      1.0  0.77440  0.41280  0.85000  1.0000
  H   H57       1.0  0.27730  0.54830  0.17310  1.0000
  H   H58       1.0  0.72270  0.45170  0.82690  1.0000
  C   C119      1.0  0.25910  0.59770  0.09900  1.0000
  C   C120      1.0  0.74090  0.40230  0.90100  1.0000
  C   C121      1.0  0.36860  0.54020  0.08130  1.0000
  C   C122      1.0  0.63140  0.45980  0.91870  1.0000
  C   C123      1.0  0.18300  0.65710  0.06440  1.0000
  C   C124      1.0  0.81700  0.34290  0.93560  1.0000
  H   H59       1.0  0.20390  0.66430  0.03020  1.0000
  H   H60       1.0  0.79610  0.33570  0.96980  1.0000
  C   C125      1.0  0.07600  0.70600  0.08030  1.0000
  C   C126      1.0  0.92400  0.29400  0.91970  1.0000
  H   H61       1.0  0.02500  0.74470  0.05700  1.0000
  H   H62       1.0  0.97500  0.25530  0.94300  1.0000
  C   C127      1.0  0.04550  0.69520  0.13170  1.0000
  C   C128      1.0  0.95450  0.30480  0.86830  1.0000
  H   H63       1.0  0.97520  0.73060  0.14250  1.0000
  H   H64       1.0  0.02480  0.26940  0.85750  1.0000
  Eu  Eu1       1.0  0.56052  0.38486  0.45367  1.0000
  Eu  Eu2       1.0  0.43948  0.61514  0.54633  1.0000
  Eu  Eu3       1.0  0.62528  0.52829  0.04534  1.0000
  Eu  Eu4       1.0  0.37472  0.47171  0.95466  1.0000
  N   N1        1.0  0.69420  0.09850  0.26240  1.0000
  N   N2        1.0  0.30580  0.90150  0.73760  1.0000
  N   N3        1.0  0.70900  0.11700  0.21100  1.0000
  N   N4        1.0  0.29100  0.88300  0.78900  1.0000
  N   N5        1.0  0.75720  0.92890  0.24130  1.0000
  N   N6        1.0  0.24280  0.07110  0.75870  1.0000
  N   N7        1.0  0.80480  0.81500  0.24340  1.0000
  N   N8        1.0  0.19520  0.18500  0.75660  1.0000
  H   H65       1.0  0.87690  0.81380  0.25570  1.0000
  H   H66       1.0  0.12310  0.18620  0.74430  1.0000
  H   H67       1.0  0.81230  0.79800  0.21260  1.0000
  H   H68       1.0  0.18770  0.20200  0.78740  1.0000
  N   N9        1.0  0.94330  0.56230  0.28540  1.0000
  N   N10       1.0  0.05670  0.43770  0.71460  1.0000
  N   N11       1.0  0.96110  0.57750  0.23360  1.0000
  N   N12       1.0  0.03890  0.42250  0.76640  1.0000
  N   N13       1.0  0.13000  0.61560  0.26100  1.0000
  N   N14       1.0  0.87000  0.38440  0.73900  1.0000
  N   N15       1.0  0.25030  0.66110  0.26180  1.0000
  N   N16       1.0  0.74970  0.33890  0.73820  1.0000
  H   H69       1.0  0.27100  0.64900  0.29340  1.0000
  H   H70       1.0  0.72900  0.35100  0.70660  1.0000
  H   H71       1.0  0.25240  0.74060  0.24940  1.0000
  H   H72       1.0  0.74760  0.25940  0.75060  1.0000
  N   N17       1.0  0.46730  0.81980  0.27210  1.0000
  N   N18       1.0  0.53270  0.18020  0.72790  1.0000
  N   N19       1.0  0.47780  0.82830  0.22070  1.0000
  N   N20       1.0  0.52220  0.17170  0.77930  1.0000
  N   N21       1.0  0.41550  0.00290  0.23930  1.0000
  N   N22       1.0  0.58450  0.99710  0.76070  1.0000
  N   N23       1.0  0.36190  0.11390  0.23440  1.0000
  N   N24       1.0  0.63810  0.88610  0.76560  1.0000
  H   H73       1.0  0.30950  0.11960  0.21080  1.0000
  H   H74       1.0  0.69050  0.88040  0.78920  1.0000
  H   H75       1.0  0.41800  0.17200  0.22560  1.0000
  H   H76       1.0  0.58200  0.82800  0.77440  1.0000
  N   N25       1.0  0.22740  0.32440  0.27990  1.0000
  N   N26       1.0  0.77260  0.67560  0.72010  1.0000
  N   N27       1.0  0.23310  0.34160  0.22810  1.0000
  N   N28       1.0  0.76690  0.65840  0.77190  1.0000
  N   N29       1.0  0.05440  0.27290  0.25610  1.0000
  N   N30       1.0  0.94560  0.72710  0.74390  1.0000
  N   N31       1.0  0.94310  0.21250  0.25900  1.0000
  N   N32       1.0  0.05690  0.78750  0.74100  1.0000
  H   H77       1.0  0.93190  0.19060  0.22970  1.0000
  H   H78       1.0  0.06810  0.80940  0.77030  1.0000
  H   H79       1.0  0.88510  0.26300  0.26600  1.0000
  H   H80       1.0  0.11490  0.73700  0.73400  1.0000
  O   O1        1.0  0.56400  0.31910  0.06690  1.0000
  O   O2        1.0  0.43600  0.68090  0.93310  1.0000
  O   O3        1.0  0.44700  0.29740  0.00540  1.0000
  O   O4        1.0  0.55300  0.70260  0.99460  1.0000
  O   O5        1.0  0.76070  0.44510  0.11270  1.0000
  O   O6        1.0  0.23930  0.55490  0.88730  1.0000
  O   O7        1.0  0.81970  0.43340  0.03540  1.0000
  O   O8        1.0  0.18030  0.56660  0.96460  1.0000
  O   O9        1.0  0.63510  0.68260  0.09910  1.0000
  O   O10       1.0  0.36490  0.31740  0.90090  1.0000
  O   O11       1.0  0.78160  0.69550  0.03890  1.0000
  O   O12       1.0  0.21840  0.30450  0.96110  1.0000
  O   O13       1.0  0.45460  0.51440  0.11160  1.0000
  O   O14       1.0  0.54540  0.48560  0.88840  1.0000
  O   O15       1.0  0.38570  0.52520  0.03720  1.0000
  O   O16       1.0  0.61430  0.47480  0.96280  1.0000
  O   O17       1.0  0.36280  0.45200  0.43300  1.0000
  O   O18       1.0  0.63720  0.54800  0.56700  1.0000
  O   O19       1.0  0.30010  0.54500  0.49620  1.0000
  O   O20       1.0  0.69990  0.45500  0.50380  1.0000
  O   O21       1.0  0.59480  0.57910  0.39390  1.0000
  O   O22       1.0  0.40520  0.42090  0.60610  1.0000
  O   O23       1.0  0.53830  0.63700  0.46540  1.0000
  O   O24       1.0  0.46170  0.36300  0.53460  1.0000
  O   O25       1.0  0.74220  0.37870  0.39920  1.0000
  O   O26       1.0  0.25780  0.62130  0.60080  1.0000
  O   O27       1.0  0.72700  0.23210  0.46420  1.0000
  O   O28       1.0  0.27300  0.76790  0.53580  1.0000
  O   O29       1.0  0.51480  0.26940  0.38350  1.0000
  O   O30       1.0  0.48520  0.73060  0.61650  1.0000
  O   O31       1.0  0.46080  0.18520  0.46040  1.0000
  O   O32       1.0  0.53920  0.81480  0.53960  1.0000
