data_image0
_chemical_formula_structural       Gd4N32C6H2C2H2C2H2C4H2C8H2C2H2C2H2C4H2C2H16C6H2C2H2C2H2C4H2C8H2C2H2C2H2C4H2C8H2C2H2C2H2C4H2C8H2C2H2C2H2C4H2C8H2C2H2C2H2C4H2C8H2C2H2C2H2C4H2C2O32
_chemical_formula_sum              "Gd4 N32 C128 H80 O32"
_cell_length_a       11.122
_cell_length_b       11.1502
_cell_length_c       27.107
_cell_angle_alpha    79.744
_cell_angle_beta     86.15
_cell_angle_gamma    89.992

_space_group_name_H-M_alt    "P 1"
_space_group_IT_number       1

loop_
  _space_group_symop_operation_xyz
  'x, y, z'

loop_
  _atom_site_type_symbol
  _atom_site_label
  _atom_site_symmetry_multiplicity
  _atom_site_fract_x
  _atom_site_fract_y
  _atom_site_fract_z
  _atom_site_occupancy
  Gd  Gd1       1.0  0.93967  0.61449  0.04643  1.0000
  Gd  Gd2       1.0  0.06033  0.38551  0.95357  1.0000
  Gd  Gd3       1.0  0.87547  0.47268  0.45463  1.0000
  Gd  Gd4       1.0  0.12453  0.52732  0.54537  1.0000
  N   N1        1.0  0.03300  0.18100  0.22683  1.0000
  N   N2        1.0  0.96700  0.81900  0.77317  1.0000
  N   N3        1.0  0.02330  0.17310  0.27837  1.0000
  N   N4        1.0  0.97670  0.82690  0.72163  1.0000
  N   N5        1.0  0.08210  0.99730  0.26166  1.0000
  N   N6        1.0  0.91790  0.00270  0.73834  1.0000
  N   N7        1.0  0.13830  0.88370  0.26803  1.0000
  N   N8        1.0  0.86170  0.11630  0.73197  1.0000
  N   N9        1.0  0.26790  0.65910  0.27234  1.0000
  N   N10       1.0  0.73210  0.34090  0.72766  1.0000
  N   N11       1.0  0.27430  0.67480  0.22046  1.0000
  N   N12       1.0  0.72570  0.32520  0.77954  1.0000
  N   N13       1.0  0.44750  0.72720  0.24364  1.0000
  N   N14       1.0  0.55250  0.27280  0.75636  1.0000
  N   N15       1.0  0.55990  0.78690  0.24115  1.0000
  N   N16       1.0  0.44010  0.21310  0.75885  1.0000
  N   N17       1.0  0.79330  0.88670  0.28944  1.0000
  N   N18       1.0  0.20670  0.11330  0.71056  1.0000
  N   N19       1.0  0.80620  0.90270  0.23758  1.0000
  N   N20       1.0  0.19380  0.09730  0.76242  1.0000
  N   N21       1.0  0.74340  0.07240  0.25772  1.0000
  N   N22       1.0  0.25660  0.92760  0.74228  1.0000
  N   N23       1.0  0.68880  0.18720  0.25510  1.0000
  N   N24       1.0  0.31120  0.81280  0.74490  1.0000
  N   N25       1.0  0.53970  0.42380  0.26619  1.0000
  N   N26       1.0  0.46030  0.57620  0.73381  1.0000
  N   N27       1.0  0.55570  0.43710  0.21453  1.0000
  N   N28       1.0  0.44430  0.56290  0.78547  1.0000
  N   N29       1.0  0.36810  0.38480  0.23772  1.0000
  N   N30       1.0  0.63190  0.61520  0.76228  1.0000
  N   N31       1.0  0.25230  0.33680  0.23720  1.0000
  N   N32       1.0  0.74770  0.66320  0.76280  1.0000
  C   C1        1.0  0.02770  0.81820  0.08436  1.0000
  C   C2        1.0  0.97230  0.18180  0.91564  1.0000
  C   C3        1.0  0.06990  0.93110  0.10150  1.0000
  C   C4        1.0  0.93010  0.06890  0.89850  1.0000
  C   C5        1.0  0.12340  0.02510  0.06610  1.0000
  C   C6        1.0  0.87660  0.97490  0.93390  1.0000
  H   H1        1.0  0.13190  0.01740  0.03240  1.0000
  H   H2        1.0  0.86810  0.98260  0.96760  1.0000
  C   C7        1.0  0.16380  0.13030  0.08070  1.0000
  C   C8        1.0  0.83620  0.86970  0.91930  1.0000
  H   H3        1.0  0.19980  0.19250  0.05680  1.0000
  H   H4        1.0  0.80020  0.80750  0.94320  1.0000
  C   C9        1.0  0.15090  0.14270  0.13040  1.0000
  C   C10       1.0  0.84910  0.85730  0.86960  1.0000
  H   H5        1.0  0.17970  0.21260  0.14010  1.0000
  H   H6        1.0  0.82030  0.78740  0.85990  1.0000
  C   C11       1.0  0.09420  0.04990  0.16659  1.0000
  C   C12       1.0  0.90580  0.95010  0.83341  1.0000
  C   C13       1.0  0.05620  0.94380  0.15189  1.0000
  C   C14       1.0  0.94380  0.05620  0.84811  1.0000
  H   H7        1.0  0.02140  0.88090  0.17570  1.0000
  H   H8        1.0  0.97860  0.11910  0.82430  1.0000
  C   C15       1.0  0.07010  0.07510  0.21763  1.0000
  C   C16       1.0  0.92990  0.92490  0.78237  1.0000
  C   C17       1.0  0.05510  0.06180  0.29898  1.0000
  C   C18       1.0  0.94490  0.93820  0.70102  1.0000
  C   C19       1.0  0.06440  0.02020  0.35298  1.0000
  C   C20       1.0  0.93560  0.97980  0.64702  1.0000
  C   C21       1.0  0.11220  0.10070  0.38050  1.0000
  C   C22       1.0  0.88780  0.89930  0.61950  1.0000
  H   H9        1.0  0.13630  0.17880  0.36480  1.0000
  H   H10       1.0  0.86370  0.82120  0.63520  1.0000
  C   C23       1.0  0.12360  0.06310  0.43150  1.0000
  C   C24       1.0  0.87640  0.93690  0.56850  1.0000
  H   H11       1.0  0.15390  0.11710  0.45020  1.0000
  H   H12       1.0  0.84610  0.88290  0.54980  1.0000
  C   C25       1.0  0.09080  0.94790  0.45470  1.0000
  C   C26       1.0  0.90920  0.05210  0.54530  1.0000
  H   H13       1.0  0.10140  0.92310  0.48870  1.0000
  H   H14       1.0  0.89860  0.07690  0.51130  1.0000
  C   C27       1.0  0.04150  0.86740  0.42759  1.0000
  C   C28       1.0  0.95850  0.13260  0.57241  1.0000
  C   C29       1.0  0.02670  0.90450  0.37730  1.0000
  C   C30       1.0  0.97330  0.09550  0.62270  1.0000
  H   H15       1.0  0.99100  0.85190  0.35940  1.0000
  H   H16       1.0  0.00900  0.14810  0.64060  1.0000
  C   C31       1.0  0.00740  0.73980  0.45395  1.0000
  C   C32       1.0  0.99260  0.26020  0.54605  1.0000
  H   H17       1.0  0.74320  0.24530  0.24270  1.0000
  H   H18       1.0  0.25680  0.75470  0.75730  1.0000
  H   H19       1.0  0.08190  0.82750  0.26760  1.0000
  H   H20       1.0  0.91810  0.17250  0.73240  1.0000
  H   H21       1.0  0.61430  0.72780  0.24090  1.0000
  H   H22       1.0  0.38570  0.27220  0.75910  1.0000
  H   H23       1.0  0.18830  0.38460  0.23180  1.0000
  H   H24       1.0  0.81170  0.61540  0.76820  1.0000
  H   H25       1.0  0.61480  0.21110  0.24530  1.0000
  H   H26       1.0  0.38520  0.78890  0.75470  1.0000
  H   H27       1.0  0.25970  0.28520  0.21530  1.0000
  H   H28       1.0  0.74030  0.71480  0.78470  1.0000
  H   H29       1.0  0.57180  0.82730  0.26630  1.0000
  H   H30       1.0  0.42820  0.17270  0.73370  1.0000
  H   H31       1.0  0.19640  0.88420  0.24330  1.0000
  H   H32       1.0  0.80360  0.11580  0.75670  1.0000
  C   C33       1.0  0.71490  0.70990  0.07279  1.0000
  C   C34       1.0  0.28510  0.29010  0.92721  1.0000
  C   C35       1.0  0.58870  0.74750  0.08670  1.0000
  C   C36       1.0  0.41130  0.25250  0.91330  1.0000
  C   C37       1.0  0.51990  0.81470  0.05180  1.0000
  C   C38       1.0  0.48010  0.18530  0.94820  1.0000
  H   H33       1.0  0.55130  0.83950  0.01890  1.0000
  H   H34       1.0  0.44870  0.16050  0.98110  1.0000
  C   C39       1.0  0.40290  0.84550  0.06600  1.0000
  C   C40       1.0  0.59710  0.15450  0.93400  1.0000
  H   H35       1.0  0.35450  0.88680  0.04200  1.0000
  H   H36       1.0  0.64550  0.11320  0.95800  1.0000
  C   C41       1.0  0.35880  0.81520  0.11500  1.0000
  C   C42       1.0  0.64120  0.18480  0.88500  1.0000
  H   H37       1.0  0.28160  0.83860  0.12450  1.0000
  H   H38       1.0  0.71840  0.16140  0.87550  1.0000
  C   C43       1.0  0.42930  0.74940  0.15070  1.0000
  C   C44       1.0  0.57070  0.25060  0.84930  1.0000
  C   C45       1.0  0.54210  0.71360  0.13586  1.0000
  C   C46       1.0  0.45790  0.28640  0.86414  1.0000
  H   H39       1.0  0.58780  0.66580  0.15920  1.0000
  H   H40       1.0  0.41220  0.33420  0.84080  1.0000
  C   C47       1.0  0.38210  0.71670  0.20360  1.0000
  C   C48       1.0  0.61790  0.28330  0.79640  1.0000
  C   C49       1.0  0.37290  0.69120  0.28560  1.0000
  C   C50       1.0  0.62710  0.30880  0.71440  1.0000
  C   C51       1.0  0.40480  0.68680  0.33750  1.0000
  C   C52       1.0  0.59520  0.31320  0.66250  1.0000
  C   C53       1.0  0.31910  0.72040  0.37280  1.0000
  C   C54       1.0  0.68090  0.27960  0.62720  1.0000
  H   H41       1.0  0.24530  0.75100  0.36260  1.0000
  H   H42       1.0  0.75470  0.24900  0.63740  1.0000
  C   C55       1.0  0.34410  0.70810  0.42250  1.0000
  C   C56       1.0  0.65590  0.29190  0.57750  1.0000
  H   H43       1.0  0.28720  0.73050  0.44580  1.0000
  H   H44       1.0  0.71280  0.26950  0.55420  1.0000
  C   C57       1.0  0.45490  0.66200  0.43780  1.0000
  C   C58       1.0  0.54510  0.33800  0.56220  1.0000
  H   H45       1.0  0.47120  0.65250  0.47150  1.0000
  H   H46       1.0  0.52880  0.34750  0.52850  1.0000
  C   C59       1.0  0.54130  0.63020  0.40287  1.0000
  C   C60       1.0  0.45870  0.36980  0.59713  1.0000
  C   C61       1.0  0.51500  0.64340  0.35298  1.0000
  C   C62       1.0  0.48500  0.35660  0.64702  1.0000
  H   H47       1.0  0.57250  0.62270  0.32950  1.0000
  H   H48       1.0  0.42750  0.37730  0.67050  1.0000
  C   C63       1.0  0.65980  0.58200  0.41970  1.0000
  C   C64       1.0  0.34020  0.41800  0.58030  1.0000
  C   C65       1.0  0.91040  0.34210  0.07752  1.0000
  C   C66       1.0  0.08960  0.65790  0.92248  1.0000
  C   C67       1.0  0.84770  0.22260  0.09613  1.0000
  C   C68       1.0  0.15230  0.77740  0.90387  1.0000
  C   C69       1.0  0.81000  0.15180  0.06270  1.0000
  C   C70       1.0  0.19000  0.84820  0.93730  1.0000
  H   H49       1.0  0.82380  0.17850  0.02820  1.0000
  H   H50       1.0  0.17620  0.82150  0.97180  1.0000
  C   C71       1.0  0.75190  0.04160  0.08080  1.0000
  C   C72       1.0  0.24810  0.95840  0.91920  1.0000
  H   H51       1.0  0.72280  0.99620  0.05830  1.0000
  H   H52       1.0  0.27720  0.00380  0.94170  1.0000
  C   C73       1.0  0.73670  0.99850  0.13140  1.0000
  C   C74       1.0  0.26330  0.00150  0.86860  1.0000
  H   H53       1.0  0.69920  0.92340  0.14320  1.0000
  H   H54       1.0  0.30080  0.07660  0.85680  1.0000
  C   C75       1.0  0.77740  0.06710  0.16554  1.0000
  C   C76       1.0  0.22260  0.93290  0.83446  1.0000
  C   C77       1.0  0.83070  0.17940  0.14738  1.0000
  C   C78       1.0  0.16930  0.82060  0.85262  1.0000
  H   H55       1.0  0.85550  0.22690  0.16980  1.0000
  H   H56       1.0  0.14450  0.77310  0.83020  1.0000
  C   C79       1.0  0.77460  0.01450  0.21908  1.0000
  C   C80       1.0  0.22540  0.98550  0.78092  1.0000
  C   C81       1.0  0.75480  0.99030  0.30120  1.0000
  C   C82       1.0  0.24520  0.00970  0.69880  1.0000
  C   C83       1.0  0.72870  0.01410  0.35200  1.0000
  C   C84       1.0  0.27130  0.98590  0.64800  1.0000
  C   C85       1.0  0.67150  0.92500  0.38850  1.0000
  C   C86       1.0  0.32850  0.07500  0.61150  1.0000
  H   H57       1.0  0.65150  0.84970  0.38090  1.0000
  H   H58       1.0  0.34850  0.15030  0.61910  1.0000
  C   C87       1.0  0.64480  0.94920  0.43590  1.0000
  C   C88       1.0  0.35520  0.05080  0.56410  1.0000
  H   H59       1.0  0.60620  0.88960  0.46020  1.0000
  H   H60       1.0  0.39380  0.11040  0.53980  1.0000
  C   C89       1.0  0.67360  0.05890  0.44830  1.0000
  C   C90       1.0  0.32640  0.94110  0.55170  1.0000
  H   H61       1.0  0.65120  0.07460  0.48020  1.0000
  H   H62       1.0  0.34880  0.92540  0.51980  1.0000
  C   C91       1.0  0.73630  0.14680  0.41335  1.0000
  C   C92       1.0  0.26370  0.85320  0.58665  1.0000
  C   C93       1.0  0.76240  0.12360  0.36549  1.0000
  C   C94       1.0  0.23760  0.87640  0.63451  1.0000
  H   H63       1.0  0.80340  0.18250  0.34170  1.0000
  H   H64       1.0  0.19660  0.81750  0.65830  1.0000
  C   C95       1.0  0.77480  0.26580  0.42613  1.0000
  C   C96       1.0  0.22520  0.73420  0.57387  1.0000
  C   C97       1.0  0.21060  0.48730  0.04493  1.0000
  C   C98       1.0  0.78940  0.51270  0.95507  1.0000
  C   C99       1.0  0.32090  0.44580  0.07080  1.0000
  C   C100      1.0  0.67910  0.55420  0.92920  1.0000
  C   C101      1.0  0.41610  0.39840  0.04420  1.0000
  C   C102      1.0  0.58390  0.60160  0.95580  1.0000
  H   H65       1.0  0.40970  0.39280  0.01070  1.0000
  H   H66       1.0  0.59030  0.60720  0.98930  1.0000
  C   C103      1.0  0.51930  0.36000  0.06740  1.0000
  C   C104      1.0  0.48070  0.64000  0.93260  1.0000
  H   H67       1.0  0.58240  0.32960  0.04920  1.0000
  H   H68       1.0  0.41760  0.67040  0.95080  1.0000
  C   C105      1.0  0.53020  0.36600  0.11720  1.0000
  C   C106      1.0  0.46980  0.63400  0.88280  1.0000
  H   H69       1.0  0.60120  0.34210  0.13220  1.0000
  H   H70       1.0  0.39880  0.65790  0.86780  1.0000
  C   C107      1.0  0.43450  0.40810  0.14500  1.0000
  C   C108      1.0  0.56550  0.59190  0.85500  1.0000
  C   C109      1.0  0.33220  0.45040  0.12141  1.0000
  C   C110      1.0  0.66780  0.54960  0.87859  1.0000
  H   H71       1.0  0.27010  0.48240  0.13960  1.0000
  H   H72       1.0  0.72990  0.51760  0.86040  1.0000
  C   C111      1.0  0.45310  0.41220  0.19751  1.0000
  C   C112      1.0  0.54690  0.58780  0.80249  1.0000
  C   C113      1.0  0.42660  0.39250  0.27989  1.0000
  C   C114      1.0  0.57340  0.60750  0.72011  1.0000
  C   C115      1.0  0.38020  0.36820  0.33258  1.0000
  C   C116      1.0  0.61980  0.63180  0.66742  1.0000
  C   C117      1.0  0.45610  0.30780  0.36800  1.0000
  C   C118      1.0  0.54390  0.69220  0.63200  1.0000
  H   H73       1.0  0.52860  0.27630  0.35720  1.0000
  H   H74       1.0  0.47140  0.72370  0.64280  1.0000
  C   C119      1.0  0.42480  0.29440  0.41870  1.0000
  C   C120      1.0  0.57520  0.70560  0.58130  1.0000
  H   H75       1.0  0.47450  0.25250  0.44200  1.0000
  H   H76       1.0  0.52550  0.74750  0.55800  1.0000
  C   C121      1.0  0.31770  0.34450  0.43440  1.0000
  C   C122      1.0  0.68230  0.65550  0.56560  1.0000
  H   H77       1.0  0.29710  0.33780  0.46860  1.0000
  H   H78       1.0  0.70290  0.66220  0.53140  1.0000
  C   C123      1.0  0.24180  0.40370  0.40046  1.0000
  C   C124      1.0  0.75820  0.59630  0.59954  1.0000
  C   C125      1.0  0.27180  0.41320  0.34919  1.0000
  C   C126      1.0  0.72820  0.58680  0.65081  1.0000
  H   H79       1.0  0.21890  0.44990  0.32610  1.0000
  H   H80       1.0  0.78110  0.55010  0.67390  1.0000
  C   C127      1.0  0.12810  0.46080  0.41806  1.0000
  C   C128      1.0  0.87190  0.53920  0.58194  1.0000
  O   O1        1.0  0.93600  0.68080  0.43382  1.0000
  O   O2        1.0  0.06400  0.31920  0.56618  1.0000
  O   O3        1.0  0.05600  0.70220  0.49414  1.0000
  O   O4        1.0  0.94400  0.29780  0.50586  1.0000
  O   O5        1.0  0.98450  0.72860  0.11639  1.0000
  O   O6        1.0  0.01550  0.27140  0.88361  1.0000
  O   O7        1.0  0.03560  0.81360  0.03902  1.0000
  O   O8        1.0  0.96440  0.18640  0.96098  1.0000
  O   O9        1.0  0.74090  0.55690  0.38742  1.0000
  O   O10       1.0  0.25910  0.44310  0.61258  1.0000
  O   O11       1.0  0.68010  0.56650  0.46523  1.0000
  O   O12       1.0  0.31990  0.43350  0.53477  1.0000
  O   O13       1.0  0.77190  0.76670  0.03513  1.0000
  O   O14       1.0  0.22810  0.23330  0.96487  1.0000
  O   O15       1.0  0.75820  0.62140  0.10087  1.0000
  O   O16       1.0  0.24180  0.37860  0.89913  1.0000
  O   O17       1.0  0.86460  0.32050  0.40121  1.0000
  O   O18       1.0  0.13540  0.67950  0.59879  1.0000
  O   O19       1.0  0.71970  0.30670  0.46112  1.0000
  O   O20       1.0  0.28030  0.69330  0.53888  1.0000
  O   O21       1.0  0.90720  0.42210  0.10477  1.0000
  O   O22       1.0  0.09280  0.57790  0.89523  1.0000
  O   O23       1.0  0.96340  0.36220  0.03432  1.0000
  O   O24       1.0  0.03660  0.63780  0.96568  1.0000
  O   O25       1.0  0.13620  0.54910  0.06629  1.0000
  O   O26       1.0  0.86380  0.45090  0.93371  1.0000
  O   O27       1.0  0.19990  0.45660  0.00267  1.0000
  O   O28       1.0  0.80010  0.54340  0.99733  1.0000
  O   O29       1.0  0.04630  0.48760  0.38883  1.0000
  O   O30       1.0  0.95370  0.51240  0.61117  1.0000
  O   O31       1.0  0.11370  0.47630  0.46339  1.0000
  O   O32       1.0  0.88630  0.52370  0.53661  1.0000
