data_image0
_chemical_formula_structural       Cr2O4C4H4Na2C4H4O4C4H4O16
_chemical_formula_sum              "Cr2 O24 C12 H12 Na2"
_cell_length_a       7.9504
_cell_length_b       8.7582
_cell_length_c       11.853
_cell_angle_alpha    90
_cell_angle_beta     90.989
_cell_angle_gamma    90

_space_group_name_H-M_alt    "P 1"
_space_group_IT_number       1

loop_
  _space_group_symop_operation_xyz
  'x, y, z'

loop_
  _atom_site_type_symbol
  _atom_site_label
  _atom_site_symmetry_multiplicity
  _atom_site_fract_x
  _atom_site_fract_y
  _atom_site_fract_z
  _atom_site_occupancy
  Cr  Cr1       1.0  0.50000  0.50000  0.50000  1.0000
  Cr  Cr2       1.0  0.00000  0.00000  0.00000  1.0000
  O   O1        1.0  0.62820  0.47331  0.35992  1.0000
  O   O2        1.0  0.87180  0.97331  0.14008  1.0000
  O   O3        1.0  0.37180  0.52669  0.64008  1.0000
  O   O4        1.0  0.12820  0.02669  0.85992  1.0000
  C   C1        1.0  0.56960  0.48940  0.26030  1.0000
  C   C2        1.0  0.93040  0.98940  0.23970  1.0000
  C   C3        1.0  0.43040  0.51060  0.73970  1.0000
  C   C4        1.0  0.06960  0.01060  0.76030  1.0000
  H   H1        1.0  0.45940  0.52340  0.25140  1.0000
  H   H2        1.0  0.04060  0.02340  0.24860  1.0000
  H   H3        1.0  0.54060  0.47660  0.74860  1.0000
  H   H4        1.0  0.95940  0.97660  0.75140  1.0000
  Na  Na1       1.0  0.00000  0.00000  0.50000  1.0000
  Na  Na2       1.0  0.50000  0.50000  0.00000  1.0000
  C   C5        1.0  0.70360  0.22600  0.52810  1.0000
  C   C6        1.0  0.79640  0.72600  0.97190  1.0000
  C   C7        1.0  0.29640  0.77400  0.47190  1.0000
  C   C8        1.0  0.20360  0.27400  0.02810  1.0000
  H   H5        1.0  0.77100  0.26800  0.47280  1.0000
  H   H6        1.0  0.72900  0.76800  0.02720  1.0000
  H   H7        1.0  0.22900  0.73200  0.52720  1.0000
  H   H8        1.0  0.27100  0.23200  0.97280  1.0000
  O   O5        1.0  0.29740  0.41060  0.42757  1.0000
  O   O6        1.0  0.20260  0.91060  0.07243  1.0000
  O   O7        1.0  0.70260  0.58940  0.57243  1.0000
  O   O8        1.0  0.79740  0.08940  0.92757  1.0000
  C   C9        1.0  0.21780  0.29510  0.46390  1.0000
  C   C10       1.0  0.28220  0.79510  0.03610  1.0000
  C   C11       1.0  0.78220  0.70490  0.53610  1.0000
  C   C12       1.0  0.71780  0.20490  0.96390  1.0000
  H   H9        1.0  0.26300  0.24380  0.52610  1.0000
  H   H10       1.0  0.23700  0.74380  0.97390  1.0000
  H   H11       1.0  0.73700  0.75620  0.47390  1.0000
  H   H12       1.0  0.76300  0.25620  0.02610  1.0000
  O   O9        1.0  0.65000  0.46258  0.17454  1.0000
  O   O10       1.0  0.85000  0.96258  0.32546  1.0000
  O   O11       1.0  0.35000  0.53742  0.82546  1.0000
  O   O12       1.0  0.15000  0.03742  0.67454  1.0000
  O   O13       1.0  0.08550  0.24670  0.42283  1.0000
  O   O14       1.0  0.41450  0.74670  0.07717  1.0000
  O   O15       1.0  0.91450  0.75330  0.57717  1.0000
  O   O16       1.0  0.58550  0.25330  0.92283  1.0000
  O   O17       1.0  0.74750  0.10470  0.57049  1.0000
  O   O18       1.0  0.75250  0.60470  0.92951  1.0000
  O   O19       1.0  0.25250  0.89530  0.42951  1.0000
  O   O20       1.0  0.24750  0.39530  0.07049  1.0000
  O   O21       1.0  0.57220  0.29766  0.55512  1.0000
  O   O22       1.0  0.92780  0.79766  0.94488  1.0000
  O   O23       1.0  0.42780  0.70234  0.44488  1.0000
  O   O24       1.0  0.07220  0.20234  0.05512  1.0000
