data_image0
_chemical_formula_structural       K2Al2O24C4H4C4H4C4H4
_chemical_formula_sum              "K2 Al2 O24 C12 H12"
_cell_length_a       8.1568
_cell_length_b       9.0289
_cell_length_c       12.238
_cell_angle_alpha    90
_cell_angle_beta     90.509
_cell_angle_gamma    90

_space_group_name_H-M_alt    "P 1"
_space_group_IT_number       1

loop_
  _space_group_symop_operation_xyz
  'x, y, z'

loop_
  _atom_site_type_symbol
  _atom_site_label
  _atom_site_symmetry_multiplicity
  _atom_site_fract_x
  _atom_site_fract_y
  _atom_site_fract_z
  _atom_site_occupancy
  K   K1        1.0  0.00000  0.00000  0.50000  1.0000
  K   K2        1.0  0.50000  0.50000  0.00000  1.0000
  Al  Al1       1.0  0.50000  0.50000  0.50000  1.0000
  Al  Al2       1.0  0.00000  0.00000  0.00000  1.0000
  O   O1        1.0  0.43930  0.31132  0.44669  1.0000
  O   O2        1.0  0.06070  0.81132  0.05331  1.0000
  O   O3        1.0  0.56070  0.68868  0.55331  1.0000
  O   O4        1.0  0.93930  0.18868  0.94669  1.0000
  O   O5        1.0  0.27800  0.11730  0.42308  1.0000
  O   O6        1.0  0.22200  0.61730  0.07692  1.0000
  O   O7        1.0  0.72200  0.88270  0.57692  1.0000
  O   O8        1.0  0.77800  0.38270  0.92308  1.0000
  O   O9        1.0  0.30910  0.57979  0.43193  1.0000
  O   O10       1.0  0.19090  0.07979  0.06807  1.0000
  O   O11       1.0  0.69090  0.42021  0.56807  1.0000
  O   O12       1.0  0.80910  0.92021  0.93193  1.0000
  O   O13       1.0  0.09130  0.72710  0.42345  1.0000
  O   O14       1.0  0.40870  0.22710  0.07655  1.0000
  O   O15       1.0  0.90870  0.27290  0.57655  1.0000
  O   O16       1.0  0.59130  0.77290  0.92345  1.0000
  O   O17       1.0  0.62290  0.53010  0.37097  1.0000
  O   O18       1.0  0.87710  0.03010  0.12903  1.0000
  O   O19       1.0  0.37710  0.46990  0.62903  1.0000
  O   O20       1.0  0.12290  0.96990  0.87097  1.0000
  O   O21       1.0  0.66120  0.54050  0.19174  1.0000
  O   O22       1.0  0.83880  0.04050  0.30826  1.0000
  O   O23       1.0  0.33880  0.45950  0.80826  1.0000
  O   O24       1.0  0.16120  0.95950  0.69174  1.0000
  C   C1        1.0  0.31200  0.23700  0.46660  1.0000
  C   C2        1.0  0.18800  0.73700  0.03340  1.0000
  C   C3        1.0  0.68800  0.76300  0.53340  1.0000
  C   C4        1.0  0.81200  0.26300  0.96660  1.0000
  H   H1        1.0  0.23910  0.27480  0.51750  1.0000
  H   H2        1.0  0.26090  0.77480  0.98250  1.0000
  H   H3        1.0  0.76090  0.72520  0.48250  1.0000
  H   H4        1.0  0.73910  0.22520  0.01750  1.0000
  C   C5        1.0  0.22110  0.68500  0.46610  1.0000
  C   C6        1.0  0.27890  0.18500  0.03390  1.0000
  C   C7        1.0  0.77890  0.31500  0.53390  1.0000
  C   C8        1.0  0.72110  0.81500  0.96610  1.0000
  H   H5        1.0  0.25690  0.73490  0.52830  1.0000
  H   H6        1.0  0.24310  0.23490  0.97170  1.0000
  H   H7        1.0  0.74310  0.26510  0.47170  1.0000
  H   H8        1.0  0.75690  0.76510  0.02830  1.0000
  C   C9        1.0  0.57650  0.51390  0.27270  1.0000
  C   C10       1.0  0.92350  0.01390  0.22730  1.0000
  C   C11       1.0  0.42350  0.48610  0.72730  1.0000
  C   C12       1.0  0.07650  0.98610  0.77270  1.0000
  H   H9        1.0  0.47050  0.47940  0.26040  1.0000
  H   H10       1.0  0.02950  0.97940  0.23960  1.0000
  H   H11       1.0  0.52950  0.52060  0.73960  1.0000
  H   H12       1.0  0.97050  0.02060  0.76040  1.0000
