data_image0
_chemical_formula_structural       Cr2O12C12H4O4H4O4H4O4K2
_chemical_formula_sum              "Cr2 O24 C12 H12 K2"
_cell_length_a       8.1907
_cell_length_b       9.0549
_cell_length_c       12.2909
_cell_angle_alpha    90
_cell_angle_beta     90.41
_cell_angle_gamma    90

_space_group_name_H-M_alt    "P 1"
_space_group_IT_number       1

loop_
  _space_group_symop_operation_xyz
  'x, y, z'

loop_
  _atom_site_type_symbol
  _atom_site_label
  _atom_site_symmetry_multiplicity
  _atom_site_fract_x
  _atom_site_fract_y
  _atom_site_fract_z
  _atom_site_occupancy
  Cr  Cr1       1.0  0.50000  0.50000  0.50000  1.0000
  Cr  Cr2       1.0  0.00000  0.00000  0.00000  1.0000
  O   O1        1.0  0.63090  0.53230  0.36832  1.0000
  O   O2        1.0  0.86910  0.03230  0.13168  1.0000
  O   O3        1.0  0.36910  0.46770  0.63168  1.0000
  O   O4        1.0  0.13090  0.96770  0.86832  1.0000
  O   O5        1.0  0.44190  0.30380  0.44350  1.0000
  O   O6        1.0  0.05810  0.80380  0.05650  1.0000
  O   O7        1.0  0.55810  0.69620  0.55650  1.0000
  O   O8        1.0  0.94190  0.19620  0.94350  1.0000
  O   O9        1.0  0.30360  0.57990  0.42720  1.0000
  O   O10       1.0  0.19640  0.07990  0.07280  1.0000
  O   O11       1.0  0.69640  0.42010  0.57280  1.0000
  O   O12       1.0  0.80360  0.92010  0.92720  1.0000
  C   C1        1.0  0.58080  0.51550  0.27140  1.0000
  C   C2        1.0  0.91920  0.01550  0.22860  1.0000
  C   C3        1.0  0.41920  0.48450  0.72860  1.0000
  C   C4        1.0  0.08080  0.98450  0.77140  1.0000
  C   C5        1.0  0.31190  0.23300  0.46370  1.0000
  C   C6        1.0  0.18810  0.73300  0.03630  1.0000
  C   C7        1.0  0.68810  0.76700  0.53630  1.0000
  C   C8        1.0  0.81190  0.26700  0.96370  1.0000
  C   C9        1.0  0.78280  0.31550  0.53760  1.0000
  C   C10       1.0  0.71720  0.81550  0.96240  1.0000
  C   C11       1.0  0.21720  0.68450  0.46240  1.0000
  C   C12       1.0  0.28280  0.18450  0.03760  1.0000
  H   H1        1.0  0.47460  0.48180  0.26100  1.0000
  H   H2        1.0  0.02540  0.98180  0.23900  1.0000
  H   H3        1.0  0.52540  0.51820  0.73900  1.0000
  H   H4        1.0  0.97460  0.01820  0.76100  1.0000
  O   O13       1.0  0.66300  0.54060  0.18980  1.0000
  O   O14       1.0  0.83700  0.04060  0.31020  1.0000
  O   O15       1.0  0.33700  0.45940  0.81020  1.0000
  O   O16       1.0  0.16300  0.95940  0.68980  1.0000
  H   H5        1.0  0.23930  0.27310  0.51340  1.0000
  H   H6        1.0  0.26070  0.77310  0.98660  1.0000
  H   H7        1.0  0.76070  0.72690  0.48660  1.0000
  H   H8        1.0  0.73930  0.22690  0.01340  1.0000
  O   O17       1.0  0.27650  0.11390  0.42100  1.0000
  O   O18       1.0  0.22350  0.61390  0.07900  1.0000
  O   O19       1.0  0.72350  0.88610  0.57900  1.0000
  O   O20       1.0  0.77650  0.38610  0.92100  1.0000
  H   H9        1.0  0.74510  0.26650  0.47580  1.0000
  H   H10       1.0  0.75490  0.76650  0.02420  1.0000
  H   H11       1.0  0.25490  0.73350  0.52420  1.0000
  H   H12       1.0  0.24510  0.23350  0.97580  1.0000
  O   O21       1.0  0.91230  0.27250  0.57740  1.0000
  O   O22       1.0  0.58770  0.77250  0.92260  1.0000
  O   O23       1.0  0.08770  0.72750  0.42260  1.0000
  O   O24       1.0  0.41230  0.22750  0.07740  1.0000
  K   K1        1.0  0.50000  0.50000  0.00000  1.0000
  K   K2        1.0  0.00000  0.00000  0.50000  1.0000
