data_image0
_chemical_formula_structural       C16H8C8H8C16H8C16H8C8Co4Cu8O80H16
_chemical_formula_sum              "C64 H48 Co4 Cu8 O80"
_cell_length_a       20.549
_cell_length_b       11.447
_cell_length_c       15.9766
_cell_angle_alpha    90
_cell_angle_beta     129.62
_cell_angle_gamma    90

_space_group_name_H-M_alt    "P 1"
_space_group_IT_number       1

loop_
  _space_group_symop_operation_xyz
  'x, y, z'

loop_
  _atom_site_type_symbol
  _atom_site_label
  _atom_site_symmetry_multiplicity
  _atom_site_fract_x
  _atom_site_fract_y
  _atom_site_fract_z
  _atom_site_occupancy
  C   C1        1.0  0.07730  0.58020  0.13600  1.0000
  C   C2        1.0  0.92270  0.58020  0.36400  1.0000
  C   C3        1.0  0.57730  0.08020  0.13600  1.0000
  C   C4        1.0  0.42270  0.08020  0.36400  1.0000
  C   C5        1.0  0.92270  0.41980  0.86400  1.0000
  C   C6        1.0  0.07730  0.41980  0.63600  1.0000
  C   C7        1.0  0.42270  0.91980  0.86400  1.0000
  C   C8        1.0  0.57730  0.91980  0.63600  1.0000
  C   C9        1.0  0.16230  0.60420  0.16330  1.0000
  C   C10       1.0  0.83770  0.60420  0.33670  1.0000
  C   C11       1.0  0.66230  0.10420  0.16330  1.0000
  C   C12       1.0  0.33770  0.10420  0.33670  1.0000
  C   C13       1.0  0.83770  0.39580  0.83670  1.0000
  C   C14       1.0  0.16230  0.39580  0.66330  1.0000
  C   C15       1.0  0.33770  0.89580  0.83670  1.0000
  C   C16       1.0  0.66230  0.89580  0.66330  1.0000
  H   H1        1.0  0.18940  0.67020  0.21390  1.0000
  H   H2        1.0  0.81060  0.67020  0.28610  1.0000
  H   H3        1.0  0.68940  0.17020  0.21390  1.0000
  H   H4        1.0  0.31060  0.17020  0.28610  1.0000
  H   H5        1.0  0.81060  0.32980  0.78610  1.0000
  H   H6        1.0  0.18940  0.32980  0.71390  1.0000
  H   H7        1.0  0.31060  0.82980  0.78610  1.0000
  H   H8        1.0  0.68940  0.82980  0.71390  1.0000
  C   C17       1.0  0.15510  0.63330  0.06390  1.0000
  C   C18       1.0  0.84490  0.63330  0.43610  1.0000
  C   C19       1.0  0.65510  0.13330  0.06390  1.0000
  C   C20       1.0  0.34490  0.13330  0.43610  1.0000
  C   C21       1.0  0.84490  0.36670  0.93610  1.0000
  C   C22       1.0  0.15510  0.36670  0.56390  1.0000
  C   C23       1.0  0.34490  0.86670  0.93610  1.0000
  C   C24       1.0  0.65510  0.86670  0.56390  1.0000
  H   H9        1.0  0.10170  0.67300  0.00760  1.0000
  H   H10       1.0  0.89830  0.67300  0.49240  1.0000
  H   H11       1.0  0.60170  0.17300  0.00760  1.0000
  H   H12       1.0  0.39830  0.17300  0.49240  1.0000
  H   H13       1.0  0.89830  0.32700  0.99240  1.0000
  H   H14       1.0  0.10170  0.32700  0.50760  1.0000
  H   H15       1.0  0.39830  0.82700  0.99240  1.0000
  H   H16       1.0  0.60170  0.82700  0.50760  1.0000
  C   C25       1.0  0.23070  0.70930  0.10320  1.0000
  C   C26       1.0  0.76930  0.70930  0.39680  1.0000
  C   C27       1.0  0.73070  0.20930  0.10320  1.0000
  C   C28       1.0  0.26930  0.20930  0.39680  1.0000
  C   C29       1.0  0.76930  0.29070  0.89680  1.0000
  C   C30       1.0  0.23070  0.29070  0.60320  1.0000
  C   C31       1.0  0.26930  0.79070  0.89680  1.0000
  C   C32       1.0  0.73070  0.79070  0.60320  1.0000
  C   C33       1.0  0.15770  0.51080  0.02730  1.0000
  C   C34       1.0  0.84230  0.51080  0.47270  1.0000
  C   C35       1.0  0.65770  0.01080  0.02730  1.0000
  C   C36       1.0  0.34230  0.01080  0.47270  1.0000
  C   C37       1.0  0.84230  0.48920  0.97270  1.0000
  C   C38       1.0  0.15770  0.48920  0.52730  1.0000
  C   C39       1.0  0.34230  0.98920  0.97270  1.0000
  C   C40       1.0  0.65770  0.98920  0.52730  1.0000
  H   H17       1.0  0.10090  0.47760  0.98620  1.0000
  H   H18       1.0  0.89910  0.47760  0.51380  1.0000
  H   H19       1.0  0.60090  0.97760  0.98620  1.0000
  H   H20       1.0  0.39910  0.97760  0.51380  1.0000
  H   H21       1.0  0.89910  0.52240  0.01380  1.0000
  H   H22       1.0  0.10090  0.52240  0.48620  1.0000
  H   H23       1.0  0.39910  0.02240  0.01380  1.0000
  H   H24       1.0  0.60090  0.02240  0.48620  1.0000
  C   C41       1.0  0.18030  0.50840  0.95330  1.0000
  C   C42       1.0  0.81970  0.50840  0.54670  1.0000
  C   C43       1.0  0.68030  0.00840  0.95330  1.0000
  C   C44       1.0  0.31970  0.00840  0.54670  1.0000
  C   C45       1.0  0.81970  0.49160  0.04670  1.0000
  C   C46       1.0  0.18030  0.49160  0.45330  1.0000
  C   C47       1.0  0.31970  0.99160  0.04670  1.0000
  C   C48       1.0  0.68030  0.99160  0.45330  1.0000
  C   C49       1.0  0.21590  0.44110  0.13390  1.0000
  C   C50       1.0  0.78410  0.44110  0.36610  1.0000
  C   C51       1.0  0.71590  0.94110  0.13390  1.0000
  C   C52       1.0  0.28410  0.94110  0.36610  1.0000
  C   C53       1.0  0.78410  0.55890  0.86610  1.0000
  C   C54       1.0  0.21590  0.55890  0.63390  1.0000
  C   C55       1.0  0.28410  0.05890  0.86610  1.0000
  C   C56       1.0  0.71590  0.05890  0.63390  1.0000
  H   H25       1.0  0.27290  0.43780  0.15680  1.0000
  H   H26       1.0  0.72710  0.43780  0.34320  1.0000
  H   H27       1.0  0.77290  0.93780  0.15680  1.0000
  H   H28       1.0  0.22710  0.93780  0.34320  1.0000
  H   H29       1.0  0.72710  0.56220  0.84320  1.0000
  H   H30       1.0  0.27290  0.56220  0.65680  1.0000
  H   H31       1.0  0.22710  0.06220  0.84320  1.0000
  H   H32       1.0  0.77290  0.06220  0.65680  1.0000
  C   C57       1.0  0.18350  0.31810  0.12140  1.0000
  C   C58       1.0  0.81650  0.31810  0.37860  1.0000
  C   C59       1.0  0.68350  0.81810  0.12140  1.0000
  C   C60       1.0  0.31650  0.81810  0.37860  1.0000
  C   C61       1.0  0.81650  0.68190  0.87860  1.0000
  C   C62       1.0  0.18350  0.68190  0.62140  1.0000
  C   C63       1.0  0.31650  0.18190  0.87860  1.0000
  C   C64       1.0  0.68350  0.18190  0.62140  1.0000
  Co  Co1       1.0  0.25000  0.25000  0.00000  1.0000
  Co  Co2       1.0  0.75000  0.25000  0.50000  1.0000
  Co  Co3       1.0  0.75000  0.75000  0.00000  1.0000
  Co  Co4       1.0  0.25000  0.75000  0.50000  1.0000
  Cu  Cu1       1.0  0.16967  0.39480  0.28285  1.0000
  Cu  Cu2       1.0  0.83033  0.39480  0.21715  1.0000
  Cu  Cu3       1.0  0.66967  0.89480  0.28285  1.0000
  Cu  Cu4       1.0  0.33033  0.89480  0.21715  1.0000
  Cu  Cu5       1.0  0.83033  0.60520  0.71715  1.0000
  Cu  Cu6       1.0  0.16967  0.60520  0.78285  1.0000
  Cu  Cu7       1.0  0.33033  0.10520  0.71715  1.0000
  Cu  Cu8       1.0  0.66967  0.10520  0.78285  1.0000
  O   O1        1.0  0.21794  0.50470  0.21354  1.0000
  O   O2        1.0  0.78206  0.50470  0.28646  1.0000
  O   O3        1.0  0.71794  0.00470  0.21354  1.0000
  O   O4        1.0  0.28206  0.00470  0.28646  1.0000
  O   O5        1.0  0.78206  0.49530  0.78646  1.0000
  O   O6        1.0  0.21794  0.49530  0.71354  1.0000
  O   O7        1.0  0.28206  0.99530  0.78646  1.0000
  O   O8        1.0  0.71794  0.99530  0.71354  1.0000
  O   O9        1.0  0.07144  0.49030  0.17840  1.0000
  O   O10       1.0  0.92856  0.49030  0.32160  1.0000
  O   O11       1.0  0.57144  0.99030  0.17840  1.0000
  O   O12       1.0  0.42856  0.99030  0.32160  1.0000
  O   O13       1.0  0.92856  0.50970  0.82160  1.0000
  O   O14       1.0  0.07144  0.50970  0.67840  1.0000
  O   O15       1.0  0.42856  0.00970  0.82160  1.0000
  O   O16       1.0  0.57144  0.00970  0.67840  1.0000
  O   O17       1.0  0.02020  0.65190  0.08020  1.0000
  O   O18       1.0  0.97980  0.65190  0.41980  1.0000
  O   O19       1.0  0.52020  0.15190  0.08020  1.0000
  O   O20       1.0  0.47980  0.15190  0.41980  1.0000
  O   O21       1.0  0.97980  0.34810  0.91980  1.0000
  O   O22       1.0  0.02020  0.34810  0.58020  1.0000
  O   O23       1.0  0.47980  0.84810  0.91980  1.0000
  O   O24       1.0  0.52020  0.84810  0.58020  1.0000
  O   O25       1.0  0.22244  0.81800  0.11540  1.0000
  O   O26       1.0  0.77756  0.81800  0.38460  1.0000
  O   O27       1.0  0.72244  0.31800  0.11540  1.0000
  O   O28       1.0  0.27756  0.31800  0.38460  1.0000
  O   O29       1.0  0.77756  0.18200  0.88460  1.0000
  O   O30       1.0  0.22244  0.18200  0.61540  1.0000
  O   O31       1.0  0.27756  0.68200  0.88460  1.0000
  O   O32       1.0  0.72244  0.68200  0.61540  1.0000
  O   O33       1.0  0.29624  0.66670  0.12950  1.0000
  O   O34       1.0  0.70376  0.66670  0.37050  1.0000
  O   O35       1.0  0.79624  0.16670  0.12950  1.0000
  O   O36       1.0  0.20376  0.16670  0.37050  1.0000
  O   O37       1.0  0.70376  0.33330  0.87050  1.0000
  O   O38       1.0  0.29624  0.33330  0.62950  1.0000
  O   O39       1.0  0.20376  0.83330  0.87050  1.0000
  O   O40       1.0  0.79624  0.83330  0.62950  1.0000
  O   O41       1.0  0.14690  0.58960  0.88320  1.0000
  O   O42       1.0  0.85310  0.58960  0.61680  1.0000
  O   O43       1.0  0.64690  0.08960  0.88320  1.0000
  O   O44       1.0  0.35310  0.08960  0.61680  1.0000
  O   O45       1.0  0.85310  0.41040  0.11680  1.0000
  O   O46       1.0  0.14690  0.41040  0.38320  1.0000
  O   O47       1.0  0.35310  0.91040  0.11680  1.0000
  O   O48       1.0  0.64690  0.91040  0.38320  1.0000
  O   O49       1.0  0.22518  0.42980  0.95960  1.0000
  O   O50       1.0  0.77482  0.42980  0.54040  1.0000
  O   O51       1.0  0.72518  0.92980  0.95960  1.0000
  O   O52       1.0  0.27482  0.92980  0.54040  1.0000
  O   O53       1.0  0.77482  0.57020  0.04040  1.0000
  O   O54       1.0  0.22518  0.57020  0.45960  1.0000
  O   O55       1.0  0.27482  0.07020  0.04040  1.0000
  O   O56       1.0  0.72518  0.07020  0.45960  1.0000
  O   O57       1.0  0.18879  0.24660  0.06610  1.0000
  O   O58       1.0  0.81121  0.24660  0.43390  1.0000
  O   O59       1.0  0.68879  0.74660  0.06610  1.0000
  O   O60       1.0  0.31121  0.74660  0.43390  1.0000
  O   O61       1.0  0.81121  0.75340  0.93390  1.0000
  O   O62       1.0  0.18879  0.75340  0.56610  1.0000
  O   O63       1.0  0.31121  0.25340  0.93390  1.0000
  O   O64       1.0  0.68879  0.25340  0.56610  1.0000
  O   O65       1.0  0.15167  0.29230  0.16460  1.0000
  O   O66       1.0  0.84833  0.29230  0.33540  1.0000
  O   O67       1.0  0.65167  0.79230  0.16460  1.0000
  O   O68       1.0  0.34833  0.79230  0.33540  1.0000
  O   O69       1.0  0.84833  0.70770  0.83540  1.0000
  O   O70       1.0  0.15167  0.70770  0.66460  1.0000
  O   O71       1.0  0.34833  0.20770  0.83540  1.0000
  O   O72       1.0  0.65167  0.20770  0.66460  1.0000
  O   O73       1.0  0.36455  0.28500  0.14940  1.0000
  O   O74       1.0  0.63545  0.28500  0.35060  1.0000
  O   O75       1.0  0.86455  0.78500  0.14940  1.0000
  O   O76       1.0  0.13545  0.78500  0.35060  1.0000
  O   O77       1.0  0.63545  0.71500  0.85060  1.0000
  O   O78       1.0  0.36455  0.71500  0.64940  1.0000
  O   O79       1.0  0.13545  0.21500  0.85060  1.0000
  O   O80       1.0  0.86455  0.21500  0.64940  1.0000
  H   H33       1.0  0.38200  0.35390  0.15600  1.0000
  H   H34       1.0  0.61800  0.35390  0.34400  1.0000
  H   H35       1.0  0.88200  0.85390  0.15600  1.0000
  H   H36       1.0  0.11800  0.85390  0.34400  1.0000
  H   H37       1.0  0.61800  0.64610  0.84400  1.0000
  H   H38       1.0  0.38200  0.64610  0.65600  1.0000
  H   H39       1.0  0.11800  0.14610  0.84400  1.0000
  H   H40       1.0  0.88200  0.14610  0.65600  1.0000
  H   H41       1.0  0.40500  0.23700  0.17900  1.0000
  H   H42       1.0  0.59500  0.23700  0.32100  1.0000
  H   H43       1.0  0.90500  0.73700  0.17900  1.0000
  H   H44       1.0  0.09500  0.73700  0.32100  1.0000
  H   H45       1.0  0.59500  0.76300  0.82100  1.0000
  H   H46       1.0  0.40500  0.76300  0.67900  1.0000
  H   H47       1.0  0.09500  0.26300  0.82100  1.0000
  H   H48       1.0  0.90500  0.26300  0.67900  1.0000
