data_image0
_chemical_formula_structural       Cd2O4Cl4C4H2C2H2C2
_chemical_formula_sum              "Cd2 O4 Cl4 C8 H4"
_cell_length_a       9.5028
_cell_length_b       12.313
_cell_length_c       12.7343
_cell_angle_alpha    68.38
_cell_angle_beta     73.723
_cell_angle_gamma    89.624

_space_group_name_H-M_alt    "P 1"
_space_group_IT_number       1

loop_
  _space_group_symop_operation_xyz
  'x, y, z'

loop_
  _atom_site_type_symbol
  _atom_site_label
  _atom_site_symmetry_multiplicity
  _atom_site_fract_x
  _atom_site_fract_y
  _atom_site_fract_z
  _atom_site_occupancy
  Cd  Cd1       1.0  0.40822  0.10982  0.55634  1.0000
  Cd  Cd2       1.0  0.59178  0.89018  0.44366  1.0000
  O   O1        1.0  0.35040  0.06390  0.75970  1.0000
  O   O2        1.0  0.64960  0.93610  0.24030  1.0000
  O   O3        1.0  0.17010  0.07380  0.68290  1.0000
  O   O4        1.0  0.82990  0.92620  0.31710  1.0000
  Cl  Cl1       1.0  0.45770  0.31778  0.43801  1.0000
  Cl  Cl2       1.0  0.54230  0.68222  0.56199  1.0000
  Cl  Cl3       1.0  0.64390  0.00901  0.55945  1.0000
  Cl  Cl4       1.0  0.35610  0.99099  0.44055  1.0000
  C   C1        1.0  0.10370  0.02750  0.88960  1.0000
  C   C2        1.0  0.89630  0.97250  0.11040  1.0000
  C   C3        1.0  0.14820  0.00410  0.98930  1.0000
  C   C4        1.0  0.85180  0.99590  0.01070  1.0000
  H   H1        1.0  0.24820  0.00660  0.98250  1.0000
  H   H2        1.0  0.75180  0.99340  0.01750  1.0000
  C   C5        1.0  0.95350  0.02300  0.90140  1.0000
  C   C6        1.0  0.04650  0.97700  0.09860  1.0000
  H   H3        1.0  0.92170  0.03840  0.83500  1.0000
  H   H4        1.0  0.07830  0.96160  0.16500  1.0000
  C   C7        1.0  0.21390  0.05670  0.77020  1.0000
  C   C8        1.0  0.78610  0.94330  0.22980  1.0000
