data_image0
_chemical_formula_structural       U8O72N8C8H8C8H16C8H16C8H8C8H16C8H16C16
_chemical_formula_sum              "U8 O72 N8 C64 H80"
_cell_length_a       20.5334
_cell_length_b       14.772
_cell_length_c       23.7294
_cell_angle_alpha    90
_cell_angle_beta     90
_cell_angle_gamma    90

_space_group_name_H-M_alt    "P 1"
_space_group_IT_number       1

loop_
  _space_group_symop_operation_xyz
  'x, y, z'

loop_
  _atom_site_type_symbol
  _atom_site_label
  _atom_site_symmetry_multiplicity
  _atom_site_fract_x
  _atom_site_fract_y
  _atom_site_fract_z
  _atom_site_occupancy
  U   U1        1.0  0.31086  0.40011  0.54530  1.0000
  U   U2        1.0  0.18914  0.09989  0.04530  1.0000
  U   U3        1.0  0.68914  0.40011  0.95470  1.0000
  U   U4        1.0  0.81086  0.09989  0.45470  1.0000
  U   U5        1.0  0.68914  0.59989  0.45470  1.0000
  U   U6        1.0  0.81086  0.90011  0.95470  1.0000
  U   U7        1.0  0.31086  0.59989  0.04530  1.0000
  U   U8        1.0  0.18914  0.90011  0.54530  1.0000
  O   O1        1.0  0.31958  0.47150  0.48674  1.0000
  O   O2        1.0  0.18042  0.02850  0.98674  1.0000
  O   O3        1.0  0.68042  0.47150  0.01326  1.0000
  O   O4        1.0  0.81958  0.02850  0.51326  1.0000
  O   O5        1.0  0.68042  0.52850  0.51326  1.0000
  O   O6        1.0  0.81958  0.97150  0.01326  1.0000
  O   O7        1.0  0.31958  0.52850  0.98674  1.0000
  O   O8        1.0  0.18042  0.97150  0.48674  1.0000
  O   O9        1.0  0.30117  0.33230  0.60593  1.0000
  O   O10       1.0  0.19883  0.16770  0.10593  1.0000
  O   O11       1.0  0.69883  0.33230  0.89407  1.0000
  O   O12       1.0  0.80117  0.16770  0.39407  1.0000
  O   O13       1.0  0.69883  0.66770  0.39407  1.0000
  O   O14       1.0  0.80117  0.83230  0.89407  1.0000
  O   O15       1.0  0.30117  0.66770  0.10593  1.0000
  O   O16       1.0  0.19883  0.83230  0.60593  1.0000
  O   O17       1.0  0.43002  0.39090  0.55022  1.0000
  O   O18       1.0  0.06998  0.10910  0.05022  1.0000
  O   O19       1.0  0.56998  0.39090  0.94978  1.0000
  O   O20       1.0  0.93002  0.10910  0.44978  1.0000
  O   O21       1.0  0.56998  0.60910  0.44978  1.0000
  O   O22       1.0  0.93002  0.89090  0.94978  1.0000
  O   O23       1.0  0.43002  0.60910  0.05022  1.0000
  O   O24       1.0  0.06998  0.89090  0.55022  1.0000
  O   O25       1.0  0.37884  0.28680  0.50192  1.0000
  O   O26       1.0  0.12116  0.21320  0.00192  1.0000
  O   O27       1.0  0.62116  0.28680  0.99808  1.0000
  O   O28       1.0  0.87884  0.21320  0.49808  1.0000
  O   O29       1.0  0.62116  0.71320  0.49808  1.0000
  O   O30       1.0  0.87884  0.78680  0.99808  1.0000
  O   O31       1.0  0.37884  0.71320  0.00192  1.0000
  O   O32       1.0  0.12116  0.78680  0.50192  1.0000
  O   O33       1.0  0.74372  0.20390  0.50997  1.0000
  O   O34       1.0  0.75628  0.29610  0.00997  1.0000
  O   O35       1.0  0.25628  0.20390  0.99003  1.0000
  O   O36       1.0  0.24372  0.29610  0.49003  1.0000
  O   O37       1.0  0.25628  0.79610  0.49003  1.0000
  O   O38       1.0  0.24372  0.70390  0.99003  1.0000
  O   O39       1.0  0.74372  0.79610  0.00997  1.0000
  O   O40       1.0  0.75628  0.70390  0.50997  1.0000
  O   O41       1.0  0.69265  0.09610  0.46531  1.0000
  O   O42       1.0  0.80735  0.40390  0.96531  1.0000
  O   O43       1.0  0.30735  0.09610  0.03469  1.0000
  O   O44       1.0  0.19265  0.40390  0.53469  1.0000
  O   O45       1.0  0.30735  0.90390  0.53469  1.0000
  O   O46       1.0  0.19265  0.59610  0.03469  1.0000
  O   O47       1.0  0.69265  0.90390  0.96531  1.0000
  O   O48       1.0  0.80735  0.59610  0.46531  1.0000
  O   O49       1.0  0.25656  0.53020  0.59624  1.0000
  O   O50       1.0  0.24344  0.96980  0.09624  1.0000
  O   O51       1.0  0.74344  0.53020  0.90376  1.0000
  O   O52       1.0  0.75656  0.96980  0.40376  1.0000
  O   O53       1.0  0.74344  0.46980  0.40376  1.0000
  O   O54       1.0  0.75656  0.03020  0.90376  1.0000
  O   O55       1.0  0.25656  0.46980  0.09624  1.0000
  O   O56       1.0  0.24344  0.03020  0.59624  1.0000
  O   O57       1.0  0.35986  0.51640  0.60996  1.0000
  O   O58       1.0  0.14014  0.98360  0.10996  1.0000
  O   O59       1.0  0.64014  0.51640  0.89004  1.0000
  O   O60       1.0  0.85986  0.98360  0.39004  1.0000
  O   O61       1.0  0.64014  0.48360  0.39004  1.0000
  O   O62       1.0  0.85986  0.01640  0.89004  1.0000
  O   O63       1.0  0.35986  0.48360  0.10996  1.0000
  O   O64       1.0  0.14014  0.01640  0.60996  1.0000
  O   O65       1.0  0.30540  0.61800  0.65630  1.0000
  O   O66       1.0  0.19460  0.88200  0.15630  1.0000
  O   O67       1.0  0.69460  0.61800  0.84370  1.0000
  O   O68       1.0  0.80540  0.88200  0.34370  1.0000
  O   O69       1.0  0.69460  0.38200  0.34370  1.0000
  O   O70       1.0  0.80540  0.11800  0.84370  1.0000
  O   O71       1.0  0.30540  0.38200  0.15630  1.0000
  O   O72       1.0  0.19460  0.11800  0.65630  1.0000
  N   N1        1.0  0.30720  0.55820  0.62240  1.0000
  N   N2        1.0  0.19280  0.94180  0.12240  1.0000
  N   N3        1.0  0.69280  0.55820  0.87760  1.0000
  N   N4        1.0  0.80720  0.94180  0.37760  1.0000
  N   N5        1.0  0.69280  0.44180  0.37760  1.0000
  N   N6        1.0  0.80720  0.05820  0.87760  1.0000
  N   N7        1.0  0.30720  0.44180  0.12240  1.0000
  N   N8        1.0  0.19280  0.05820  0.62240  1.0000
  C   C1        1.0  0.49590  0.28340  0.49700  1.0000
  C   C2        1.0  0.00410  0.21660  0.99700  1.0000
  C   C3        1.0  0.50410  0.28340  0.00300  1.0000
  C   C4        1.0  0.99590  0.21660  0.50300  1.0000
  C   C5        1.0  0.50410  0.71660  0.50300  1.0000
  C   C6        1.0  0.99590  0.78340  0.00300  1.0000
  C   C7        1.0  0.49590  0.71660  0.99700  1.0000
  C   C8        1.0  0.00410  0.78340  0.49700  1.0000
  H   H1        1.0  0.49250  0.27600  0.45520  1.0000
  H   H2        1.0  0.00750  0.22400  0.95520  1.0000
  H   H3        1.0  0.50750  0.27600  0.04480  1.0000
  H   H4        1.0  0.99250  0.22400  0.54480  1.0000
  H   H5        1.0  0.50750  0.72400  0.54480  1.0000
  H   H6        1.0  0.99250  0.77600  0.04480  1.0000
  H   H7        1.0  0.49250  0.72400  0.95520  1.0000
  H   H8        1.0  0.00750  0.77600  0.45520  1.0000
  C   C9        1.0  0.55420  0.34440  0.50890  1.0000
  C   C10       1.0  0.94580  0.15560  0.00890  1.0000
  C   C11       1.0  0.44580  0.34440  0.99110  1.0000
  C   C12       1.0  0.05420  0.15560  0.49110  1.0000
  C   C13       1.0  0.44580  0.65560  0.49110  1.0000
  C   C14       1.0  0.05420  0.84440  0.99110  1.0000
  C   C15       1.0  0.55420  0.65560  0.00890  1.0000
  C   C16       1.0  0.94580  0.84440  0.50890  1.0000
  H   H9        1.0  0.55670  0.35670  0.54990  1.0000
  H   H10       1.0  0.94330  0.14330  0.04990  1.0000
  H   H11       1.0  0.44330  0.35670  0.95010  1.0000
  H   H12       1.0  0.05670  0.14330  0.45010  1.0000
  H   H13       1.0  0.44330  0.64330  0.45010  1.0000
  H   H14       1.0  0.05670  0.85670  0.95010  1.0000
  H   H15       1.0  0.55670  0.64330  0.04990  1.0000
  H   H16       1.0  0.94330  0.85670  0.54990  1.0000
  H   H17       1.0  0.54820  0.40290  0.48920  1.0000
  H   H18       1.0  0.95180  0.09710  0.98920  1.0000
  H   H19       1.0  0.45180  0.40290  0.01080  1.0000
  H   H20       1.0  0.04820  0.09710  0.51080  1.0000
  H   H21       1.0  0.45180  0.59710  0.51080  1.0000
  H   H22       1.0  0.04820  0.90290  0.01080  1.0000
  H   H23       1.0  0.54820  0.59710  0.98920  1.0000
  H   H24       1.0  0.95180  0.90290  0.48920  1.0000
  C   C17       1.0  0.61760  0.30090  0.48950  1.0000
  C   C18       1.0  0.88240  0.19910  0.98950  1.0000
  C   C19       1.0  0.38240  0.30090  0.01050  1.0000
  C   C20       1.0  0.11760  0.19910  0.51050  1.0000
  C   C21       1.0  0.38240  0.69910  0.51050  1.0000
  C   C22       1.0  0.11760  0.80090  0.01050  1.0000
  C   C23       1.0  0.61760  0.69910  0.98950  1.0000
  C   C24       1.0  0.88240  0.80090  0.48950  1.0000
  H   H25       1.0  0.65470  0.33980  0.50060  1.0000
  H   H26       1.0  0.84530  0.16020  0.00060  1.0000
  H   H27       1.0  0.34530  0.33980  0.99940  1.0000
  H   H28       1.0  0.15470  0.16020  0.49940  1.0000
  H   H29       1.0  0.34530  0.66020  0.49940  1.0000
  H   H30       1.0  0.15470  0.83980  0.99940  1.0000
  H   H31       1.0  0.65470  0.66020  0.00060  1.0000
  H   H32       1.0  0.84530  0.83980  0.50060  1.0000
  H   H33       1.0  0.61760  0.29600  0.44780  1.0000
  H   H34       1.0  0.88240  0.20400  0.94780  1.0000
  H   H35       1.0  0.38240  0.29600  0.05220  1.0000
  H   H36       1.0  0.11760  0.20400  0.55220  1.0000
  H   H37       1.0  0.38240  0.70400  0.55220  1.0000
  H   H38       1.0  0.11760  0.79600  0.05220  1.0000
  H   H39       1.0  0.61760  0.70400  0.94780  1.0000
  H   H40       1.0  0.88240  0.79600  0.44780  1.0000
  C   C25       1.0  0.62660  0.20510  0.51560  1.0000
  C   C26       1.0  0.87340  0.29490  0.01560  1.0000
  C   C27       1.0  0.37340  0.20510  0.98440  1.0000
  C   C28       1.0  0.12660  0.29490  0.48440  1.0000
  C   C29       1.0  0.37340  0.79490  0.48440  1.0000
  C   C30       1.0  0.12660  0.70510  0.98440  1.0000
  C   C31       1.0  0.62660  0.79490  0.01560  1.0000
  C   C32       1.0  0.87340  0.70510  0.51560  1.0000
  H   H41       1.0  0.62870  0.21210  0.55750  1.0000
  H   H42       1.0  0.87130  0.28790  0.05750  1.0000
  H   H43       1.0  0.37130  0.21210  0.94250  1.0000
  H   H44       1.0  0.12870  0.28790  0.44250  1.0000
  H   H45       1.0  0.37130  0.78790  0.44250  1.0000
  H   H46       1.0  0.12870  0.71210  0.94250  1.0000
  H   H47       1.0  0.62870  0.78790  0.05750  1.0000
  H   H48       1.0  0.87130  0.71210  0.55750  1.0000
  C   C33       1.0  0.56810  0.14530  0.50200  1.0000
  C   C34       1.0  0.93190  0.35470  0.00200  1.0000
  C   C35       1.0  0.43190  0.14530  0.99800  1.0000
  C   C36       1.0  0.06810  0.35470  0.49800  1.0000
  C   C37       1.0  0.43190  0.85470  0.49800  1.0000
  C   C38       1.0  0.06810  0.64530  0.99800  1.0000
  C   C39       1.0  0.56810  0.85470  0.00200  1.0000
  C   C40       1.0  0.93190  0.64530  0.50200  1.0000
  H   H49       1.0  0.57360  0.08560  0.52030  1.0000
  H   H50       1.0  0.92640  0.41440  0.02030  1.0000
  H   H51       1.0  0.42640  0.08560  0.97970  1.0000
  H   H52       1.0  0.07360  0.41440  0.47970  1.0000
  H   H53       1.0  0.42640  0.91440  0.47970  1.0000
  H   H54       1.0  0.07360  0.58560  0.97970  1.0000
  H   H55       1.0  0.57360  0.91440  0.02030  1.0000
  H   H56       1.0  0.92640  0.58560  0.52030  1.0000
  H   H57       1.0  0.56560  0.13560  0.46080  1.0000
  H   H58       1.0  0.93440  0.36440  0.96080  1.0000
  H   H59       1.0  0.43440  0.13560  0.03920  1.0000
  H   H60       1.0  0.06560  0.36440  0.53920  1.0000
  H   H61       1.0  0.43440  0.86440  0.53920  1.0000
  H   H62       1.0  0.06560  0.63560  0.03920  1.0000
  H   H63       1.0  0.56560  0.86440  0.96080  1.0000
  H   H64       1.0  0.93440  0.63560  0.46080  1.0000
  C   C41       1.0  0.50520  0.18910  0.52260  1.0000
  C   C42       1.0  0.99480  0.31090  0.02260  1.0000
  C   C43       1.0  0.49480  0.18910  0.97740  1.0000
  C   C44       1.0  0.00520  0.31090  0.47740  1.0000
  C   C45       1.0  0.49480  0.81090  0.47740  1.0000
  C   C46       1.0  0.00520  0.68910  0.97740  1.0000
  C   C47       1.0  0.50520  0.81090  0.02260  1.0000
  C   C48       1.0  0.99480  0.68910  0.52260  1.0000
  H   H65       1.0  0.50630  0.19400  0.56420  1.0000
  H   H66       1.0  0.99370  0.30600  0.06420  1.0000
  H   H67       1.0  0.49370  0.19400  0.93580  1.0000
  H   H68       1.0  0.00630  0.30600  0.43580  1.0000
  H   H69       1.0  0.49370  0.80600  0.43580  1.0000
  H   H70       1.0  0.00630  0.69400  0.93580  1.0000
  H   H71       1.0  0.50630  0.80600  0.06420  1.0000
  H   H72       1.0  0.99370  0.69400  0.56420  1.0000
  H   H73       1.0  0.46780  0.15020  0.51220  1.0000
  H   H74       1.0  0.03220  0.34980  0.01220  1.0000
  H   H75       1.0  0.53220  0.15020  0.98780  1.0000
  H   H76       1.0  0.96780  0.34980  0.48780  1.0000
  H   H77       1.0  0.53220  0.84980  0.48780  1.0000
  H   H78       1.0  0.96780  0.65020  0.98780  1.0000
  H   H79       1.0  0.46780  0.84980  0.01220  1.0000
  H   H80       1.0  0.03220  0.65020  0.51220  1.0000
  C   C49       1.0  0.43170  0.32280  0.51770  1.0000
  C   C50       1.0  0.06830  0.17720  0.01770  1.0000
  C   C51       1.0  0.56830  0.32280  0.98230  1.0000
  C   C52       1.0  0.93170  0.17720  0.48230  1.0000
  C   C53       1.0  0.56830  0.67720  0.48230  1.0000
  C   C54       1.0  0.93170  0.82280  0.98230  1.0000
  C   C55       1.0  0.43170  0.67720  0.01770  1.0000
  C   C56       1.0  0.06830  0.82280  0.51770  1.0000
  C   C57       1.0  0.69110  0.16600  0.49590  1.0000
  C   C58       1.0  0.80890  0.33400  0.99590  1.0000
  C   C59       1.0  0.30890  0.16600  0.00410  1.0000
  C   C60       1.0  0.19110  0.33400  0.50410  1.0000
  C   C61       1.0  0.30890  0.83400  0.50410  1.0000
  C   C62       1.0  0.19110  0.66600  0.00410  1.0000
  C   C63       1.0  0.69110  0.83400  0.99590  1.0000
  C   C64       1.0  0.80890  0.66600  0.49590  1.0000
