data_image0
_chemical_formula_structural       U4O32C4H4C4H8C4H8C4H4C4H8C4H8C16H4C4H8C4H8
_chemical_formula_sum              "U4 O32 C48 H60"
_cell_length_a       8.7748
_cell_length_b       25.8721
_cell_length_c       13.6877
_cell_angle_alpha    90
_cell_angle_beta     97.15
_cell_angle_gamma    90

_space_group_name_H-M_alt    "P 1"
_space_group_IT_number       1

loop_
  _space_group_symop_operation_xyz
  'x, y, z'

loop_
  _atom_site_type_symbol
  _atom_site_label
  _atom_site_symmetry_multiplicity
  _atom_site_fract_x
  _atom_site_fract_y
  _atom_site_fract_z
  _atom_site_occupancy
  U   U1        1.0  0.76322  0.83329  0.49692  1.0000
  U   U2        1.0  0.23678  0.33329  0.00308  1.0000
  U   U3        1.0  0.23678  0.16671  0.50308  1.0000
  U   U4        1.0  0.76322  0.66671  0.99692  1.0000
  O   O1        1.0  0.86720  0.84239  0.39660  1.0000
  O   O2        1.0  0.13280  0.34239  0.10340  1.0000
  O   O3        1.0  0.13280  0.15761  0.60340  1.0000
  O   O4        1.0  0.86720  0.65761  0.89660  1.0000
  O   O5        1.0  0.66000  0.82300  0.59770  1.0000
  O   O6        1.0  0.34000  0.32300  0.90230  1.0000
  O   O7        1.0  0.34000  0.17700  0.40230  1.0000
  O   O8        1.0  0.66000  0.67700  0.09770  1.0000
  O   O9        1.0  0.51360  0.83834  0.39280  1.0000
  O   O10       1.0  0.48640  0.33834  0.10720  1.0000
  O   O11       1.0  0.48640  0.16166  0.60720  1.0000
  O   O12       1.0  0.51360  0.66166  0.89280  1.0000
  O   O13       1.0  0.62000  0.76203  0.41130  1.0000
  O   O14       1.0  0.38000  0.26203  0.08870  1.0000
  O   O15       1.0  0.38000  0.23797  0.58870  1.0000
  O   O16       1.0  0.62000  0.73797  0.91130  1.0000
  O   O17       1.0  0.89940  0.75034  0.02890  1.0000
  O   O18       1.0  0.10060  0.25034  0.47110  1.0000
  O   O19       1.0  0.10060  0.24966  0.97110  1.0000
  O   O20       1.0  0.89940  0.74966  0.52890  1.0000
  O   O21       1.0  0.00800  0.68223  0.09990  1.0000
  O   O22       1.0  0.99200  0.18223  0.40010  1.0000
  O   O23       1.0  0.99200  0.31777  0.90010  1.0000
  O   O24       1.0  0.00800  0.81777  0.59990  1.0000
  O   O25       1.0  0.87220  0.91021  0.58170  1.0000
  O   O26       1.0  0.12780  0.41021  0.91830  1.0000
  O   O27       1.0  0.12780  0.08979  0.41830  1.0000
  O   O28       1.0  0.87220  0.58979  0.08170  1.0000
  O   O29       1.0  0.67860  0.92323  0.46860  1.0000
  O   O30       1.0  0.32140  0.42323  0.03140  1.0000
  O   O31       1.0  0.32140  0.07677  0.53140  1.0000
  O   O32       1.0  0.67860  0.57677  0.96860  1.0000
  C   C1        1.0  0.37890  0.76608  0.30910  1.0000
  C   C2        1.0  0.62110  0.26608  0.19090  1.0000
  C   C3        1.0  0.62110  0.23392  0.69090  1.0000
  C   C4        1.0  0.37890  0.73392  0.80910  1.0000
  H   H1        1.0  0.37770  0.72820  0.32350  1.0000
  H   H2        1.0  0.62230  0.22820  0.17650  1.0000
  H   H3        1.0  0.62230  0.27180  0.67650  1.0000
  H   H4        1.0  0.37770  0.77180  0.82350  1.0000
  C   C5        1.0  0.40860  0.77280  0.20220  1.0000
  C   C6        1.0  0.59140  0.27280  0.29780  1.0000
  C   C7        1.0  0.59140  0.22720  0.79780  1.0000
  C   C8        1.0  0.40860  0.72720  0.70220  1.0000
  H   H5        1.0  0.51080  0.75860  0.19350  1.0000
  H   H6        1.0  0.48920  0.25860  0.30650  1.0000
  H   H7        1.0  0.48920  0.24140  0.80650  1.0000
  H   H8        1.0  0.51080  0.74140  0.69350  1.0000
  H   H9        1.0  0.40830  0.81010  0.18550  1.0000
  H   H10       1.0  0.59170  0.31010  0.31450  1.0000
  H   H11       1.0  0.59170  0.18990  0.81450  1.0000
  H   H12       1.0  0.40830  0.68990  0.68550  1.0000
  C   C9        1.0  0.28420  0.74480  0.13340  1.0000
  C   C10       1.0  0.71580  0.24480  0.36660  1.0000
  C   C11       1.0  0.71580  0.25520  0.86660  1.0000
  C   C12       1.0  0.28420  0.75520  0.63340  1.0000
  H   H13       1.0  0.30160  0.75080  0.06420  1.0000
  H   H14       1.0  0.69840  0.25080  0.43580  1.0000
  H   H15       1.0  0.69840  0.24920  0.93580  1.0000
  H   H16       1.0  0.30160  0.74920  0.56420  1.0000
  H   H17       1.0  0.29120  0.70720  0.14620  1.0000
  H   H18       1.0  0.70880  0.20720  0.35380  1.0000
  H   H19       1.0  0.70880  0.29280  0.85380  1.0000
  H   H20       1.0  0.29120  0.79280  0.64620  1.0000
  C   C13       1.0  0.12440  0.76389  0.14830  1.0000
  C   C14       1.0  0.87560  0.26389  0.35170  1.0000
  C   C15       1.0  0.87560  0.23611  0.85170  1.0000
  C   C16       1.0  0.12440  0.73611  0.64830  1.0000
  H   H21       1.0  0.11220  0.80060  0.12570  1.0000
  H   H22       1.0  0.88780  0.30060  0.37430  1.0000
  H   H23       1.0  0.88780  0.19940  0.87430  1.0000
  H   H24       1.0  0.11220  0.69940  0.62570  1.0000
  C   C17       1.0  0.09850  0.76050  0.25650  1.0000
  C   C18       1.0  0.90150  0.26050  0.24350  1.0000
  C   C19       1.0  0.90150  0.23950  0.74350  1.0000
  C   C20       1.0  0.09850  0.73950  0.75650  1.0000
  H   H25       1.0  0.99760  0.77590  0.26460  1.0000
  H   H26       1.0  0.00240  0.27590  0.23540  1.0000
  H   H27       1.0  0.00240  0.22410  0.73540  1.0000
  H   H28       1.0  0.99760  0.72410  0.76460  1.0000
  H   H29       1.0  0.09580  0.72370  0.27590  1.0000
  H   H30       1.0  0.90420  0.22370  0.22410  1.0000
  H   H31       1.0  0.90420  0.27630  0.72410  1.0000
  H   H32       1.0  0.09580  0.77630  0.77590  1.0000
  C   C21       1.0  0.22300  0.78800  0.32390  1.0000
  C   C22       1.0  0.77700  0.28800  0.17610  1.0000
  C   C23       1.0  0.77700  0.21200  0.67610  1.0000
  C   C24       1.0  0.22300  0.71200  0.82390  1.0000
  H   H33       1.0  0.20490  0.78350  0.39330  1.0000
  H   H34       1.0  0.79510  0.28350  0.10670  1.0000
  H   H35       1.0  0.79510  0.21650  0.60670  1.0000
  H   H36       1.0  0.20490  0.71650  0.89330  1.0000
  H   H37       1.0  0.22030  0.82550  0.30900  1.0000
  H   H38       1.0  0.77970  0.32550  0.19100  1.0000
  H   H39       1.0  0.77970  0.17450  0.69100  1.0000
  H   H40       1.0  0.22030  0.67450  0.80900  1.0000
  C   C25       1.0  0.51070  0.78991  0.37500  1.0000
  C   C26       1.0  0.48930  0.28991  0.12500  1.0000
  C   C27       1.0  0.48930  0.21009  0.62500  1.0000
  C   C28       1.0  0.51070  0.71009  0.87500  1.0000
  C   C29       1.0  0.00400  0.73070  0.08860  1.0000
  C   C30       1.0  0.99600  0.23070  0.41140  1.0000
  C   C31       1.0  0.99600  0.26930  0.91140  1.0000
  C   C32       1.0  0.00400  0.76930  0.58860  1.0000
  C   C33       1.0  0.79240  0.94140  0.52480  1.0000
  C   C34       1.0  0.20760  0.44140  0.97520  1.0000
  C   C35       1.0  0.20760  0.05860  0.47520  1.0000
  C   C36       1.0  0.79240  0.55860  0.02480  1.0000
  C   C37       1.0  0.83500  0.99727  0.51890  1.0000
  C   C38       1.0  0.16500  0.49727  0.98110  1.0000
  C   C39       1.0  0.16500  0.00273  0.48110  1.0000
  C   C40       1.0  0.83500  0.50273  0.01890  1.0000
  H   H41       1.0  0.74220  0.01830  0.52770  1.0000
  H   H42       1.0  0.25780  0.51830  0.97230  1.0000
  H   H43       1.0  0.25780  0.98170  0.47230  1.0000
  H   H44       1.0  0.74220  0.48170  0.02770  1.0000
  C   C41       1.0  0.96480  0.01357  0.59910  1.0000
  C   C42       1.0  0.03520  0.51357  0.90090  1.0000
  C   C43       1.0  0.03520  0.98643  0.40090  1.0000
  C   C44       1.0  0.96480  0.48643  0.09910  1.0000
  H   H45       1.0  0.97220  0.05170  0.60010  1.0000
  H   H46       1.0  0.02780  0.55170  0.89990  1.0000
  H   H47       1.0  0.02780  0.94830  0.39990  1.0000
  H   H48       1.0  0.97220  0.44830  0.10010  1.0000
  H   H49       1.0  0.93850  0.00220  0.66400  1.0000
  H   H50       1.0  0.06150  0.50220  0.83600  1.0000
  H   H51       1.0  0.06150  0.99780  0.33600  1.0000
  H   H52       1.0  0.93850  0.49780  0.16400  1.0000
  C   C45       1.0  0.12040  0.99100  0.58350  1.0000
  C   C46       1.0  0.87960  0.49100  0.91650  1.0000
  C   C47       1.0  0.87960  0.00900  0.41650  1.0000
  C   C48       1.0  0.12040  0.50900  0.08350  1.0000
  H   H53       1.0  0.11780  0.95310  0.59270  1.0000
  H   H54       1.0  0.88220  0.45310  0.90730  1.0000
  H   H55       1.0  0.88220  0.04690  0.40730  1.0000
  H   H56       1.0  0.11780  0.54690  0.09270  1.0000
  H   H57       1.0  0.20000  0.00520  0.63390  1.0000
  H   H58       1.0  0.80000  0.50520  0.86610  1.0000
  H   H59       1.0  0.80000  0.99480  0.36610  1.0000
  H   H60       1.0  0.20000  0.49480  0.13390  1.0000
