data_image0
_chemical_formula_structural       Mo4Cu12S20O4N20C10H2C2H2C4H2C2H2C4H2C2H2C2H2C2H2C2H2C2H2C4H2C2H2C4H2C2H2C2H2C2H2C2H2C2H2C4H2C2H2C4H2C2H2C2H2C2H2
_chemical_formula_sum              "Mo4 Cu12 S20 O4 N20 C68 H48"
_cell_length_a       9.901
_cell_length_b       25.752
_cell_length_c       18.883
_cell_angle_alpha    90
_cell_angle_beta     97.9
_cell_angle_gamma    90

_space_group_name_H-M_alt    "P 1"
_space_group_IT_number       1

loop_
  _space_group_symop_operation_xyz
  'x, y, z'

loop_
  _atom_site_type_symbol
  _atom_site_label
  _atom_site_symmetry_multiplicity
  _atom_site_fract_x
  _atom_site_fract_y
  _atom_site_fract_z
  _atom_site_occupancy
  Mo  Mo1       1.0  0.48820  0.61249  0.46898  1.0000
  Mo  Mo2       1.0  0.51180  0.11249  0.53102  1.0000
  Mo  Mo3       1.0  0.58459  0.56909  0.06449  1.0000
  Mo  Mo4       1.0  0.41541  0.06909  0.93551  1.0000
  Cu  Cu1       1.0  0.45930  0.69009  0.55759  1.0000
  Cu  Cu2       1.0  0.54070  0.19009  0.44241  1.0000
  Cu  Cu3       1.0  0.45830  0.55026  0.58012  1.0000
  Cu  Cu4       1.0  0.54170  0.05026  0.41988  1.0000
  Cu  Cu5       1.0  0.75580  0.61246  0.50997  1.0000
  Cu  Cu6       1.0  0.24420  0.11246  0.49003  1.0000
  Cu  Cu7       1.0  0.31730  0.58015  0.02568  1.0000
  Cu  Cu8       1.0  0.68270  0.08015  0.97432  1.0000
  Cu  Cu9       1.0  0.62180  0.63358  0.95618  1.0000
  Cu  Cu10      1.0  0.37820  0.13358  0.04382  1.0000
  Cu  Cu11      1.0  0.58630  0.49445  0.96915  1.0000
  Cu  Cu12      1.0  0.41370  0.99445  0.03085  1.0000
  S   S1        1.0  0.32640  0.61910  0.54360  1.0000
  S   S2        1.0  0.67360  0.11910  0.45640  1.0000
  S   S3        1.0  0.62080  0.68410  0.48600  1.0000
  S   S4        1.0  0.37920  0.18410  0.51400  1.0000
  S   S5        1.0  0.61810  0.54220  0.50250  1.0000
  S   S6        1.0  0.38190  0.04220  0.49750  1.0000
  S   S7        1.0  0.47160  0.64380  0.03910  1.0000
  S   S8        1.0  0.52840  0.14380  0.96090  1.0000
  S   S9        1.0  0.43280  0.50300  0.04400  1.0000
  S   S10       1.0  0.56720  0.00300  0.95600  1.0000
  S   S11       1.0  0.73730  0.55890  0.98740  1.0000
  S   S12       1.0  0.26270  0.05890  0.01260  1.0000
  S   S13       1.0  0.44620  0.79720  0.75090  1.0000
  S   S14       1.0  0.55380  0.29720  0.24910  1.0000
  S   S15       1.0  0.25690  0.38730  0.59610  1.0000
  S   S16       1.0  0.74310  0.88730  0.40390  1.0000
  S   S17       1.0  0.91000  0.77600  0.93970  1.0000
  S   S18       1.0  0.09000  0.27600  0.06030  1.0000
  S   S19       1.0  0.55100  0.38730  0.77180  1.0000
  S   S20       1.0  0.44900  0.88730  0.22820  1.0000
  O   O1        1.0  0.41660  0.60460  0.38350  1.0000
  O   O2        1.0  0.58340  0.10460  0.61650  1.0000
  O   O3        1.0  0.66040  0.57080  0.15100  1.0000
  O   O4        1.0  0.33960  0.07080  0.84900  1.0000
  N   N1        1.0  0.42740  0.74720  0.62730  1.0000
  N   N2        1.0  0.57260  0.24720  0.37270  1.0000
  N   N3        1.0  0.33390  0.48470  0.59690  1.0000
  N   N4        1.0  0.66610  0.98470  0.40310  1.0000
  N   N5        1.0  0.74350  0.69780  0.94220  1.0000
  N   N6        1.0  0.25650  0.19780  0.05780  1.0000
  N   N7        1.0  0.59030  0.44100  0.89340  1.0000
  N   N8        1.0  0.40970  0.94100  0.10660  1.0000
  N   N9        1.0  0.58590  0.56450  0.67730  1.0000
  N   N10       1.0  0.41410  0.06450  0.32270  1.0000
  N   N11       1.0  0.16260  0.58160  0.94700  1.0000
  N   N12       1.0  0.83740  0.08160  0.05300  1.0000
  N   N13       1.0  0.91050  0.61310  0.59000  1.0000
  N   N14       1.0  0.08950  0.11310  0.41000  1.0000
  N   N15       1.0  0.47980  0.62430  0.86230  1.0000
  N   N16       1.0  0.52020  0.12430  0.13770  1.0000
  N   N17       1.0  0.86340  0.60980  0.41890  1.0000
  N   N18       1.0  0.13660  0.10980  0.58110  1.0000
  N   N19       1.0  0.20640  0.58410  0.11190  1.0000
  N   N20       1.0  0.79360  0.08410  0.88810  1.0000
  C   C1        1.0  0.43780  0.76440  0.67170  1.0000
  C   C2        1.0  0.56220  0.26440  0.32830  1.0000
  C   C3        1.0  0.32510  0.44860  0.59880  1.0000
  C   C4        1.0  0.67490  0.94860  0.40120  1.0000
  C   C5        1.0  0.79270  0.72700  0.93900  1.0000
  C   C6        1.0  0.20730  0.22700  0.06100  1.0000
  C   C7        1.0  0.56770  0.42280  0.84900  1.0000
  C   C8        1.0  0.43230  0.92280  0.15100  1.0000
  C   C9        1.0  0.64500  0.61090  0.69640  1.0000
  C   C10       1.0  0.35500  0.11090  0.30360  1.0000
  H   H1        1.0  0.60830  0.64060  0.67050  1.0000
  H   H2        1.0  0.39170  0.14060  0.32950  1.0000
  C   C11       1.0  0.75100  0.61910  0.74960  1.0000
  C   C12       1.0  0.24900  0.11910  0.25040  1.0000
  H   H3        1.0  0.78560  0.65290  0.76150  1.0000
  H   H4        1.0  0.21440  0.15290  0.23850  1.0000
  C   C13       1.0  0.80840  0.57320  0.78670  1.0000
  C   C14       1.0  0.19160  0.07320  0.21330  1.0000
  C   C15       1.0  0.74510  0.52730  0.76790  1.0000
  C   C16       1.0  0.25490  0.02730  0.23210  1.0000
  H   H5        1.0  0.77800  0.49640  0.79200  1.0000
  H   H6        1.0  0.22200  0.99640  0.20800  1.0000
  C   C17       1.0  0.63500  0.52420  0.71530  1.0000
  C   C18       1.0  0.36500  0.02420  0.28470  1.0000
  H   H7        1.0  0.59250  0.49140  0.70570  1.0000
  H   H8        1.0  0.40750  0.99140  0.29430  1.0000
  C   C19       1.0  0.92900  0.57810  0.84170  1.0000
  C   C20       1.0  0.07100  0.07810  0.15830  1.0000
  C   C21       1.0  0.98600  0.62580  0.86810  1.0000
  C   C22       1.0  0.01400  0.12580  0.13190  1.0000
  H   H9        1.0  0.94490  0.65740  0.85070  1.0000
  H   H10       1.0  0.05510  0.15740  0.14930  1.0000
  C   C23       1.0  0.10200  0.62710  0.91940  1.0000
  C   C24       1.0  0.89800  0.12710  0.08060  1.0000
  H   H11       1.0  0.14020  0.65960  0.93540  1.0000
  H   H12       1.0  0.85980  0.15960  0.06460  1.0000
  C   C25       1.0  0.11500  0.53800  0.91610  1.0000
  C   C26       1.0  0.88500  0.03800  0.08390  1.0000
  H   H13       1.0  0.16450  0.50680  0.92770  1.0000
  H   H14       1.0  0.83550  0.00680  0.07230  1.0000
  C   C27       1.0  0.99800  0.53550  0.86790  1.0000
  C   C28       1.0  0.00200  0.03550  0.13210  1.0000
  H   H15       1.0  0.96420  0.50230  0.85240  1.0000
  H   H16       1.0  0.03580  0.00230  0.14760  1.0000
  C   C29       1.0  0.97500  0.65890  0.60660  1.0000
  C   C30       1.0  0.02500  0.15890  0.39340  1.0000
  H   H17       1.0  0.94660  0.68970  0.58120  1.0000
  H   H18       1.0  0.05340  0.18970  0.41880  1.0000
  C   C31       1.0  0.08800  0.65980  0.66300  1.0000
  C   C32       1.0  0.91200  0.15980  0.33700  1.0000
  H   H19       1.0  0.12830  0.69230  0.67720  1.0000
  H   H20       1.0  0.87170  0.19230  0.32280  1.0000
  C   C33       1.0  0.14030  0.61540  0.69760  1.0000
  C   C34       1.0  0.85970  0.11540  0.30240  1.0000
  C   C35       1.0  0.07520  0.57110  0.67260  1.0000
  C   C36       1.0  0.92480  0.07110  0.32740  1.0000
  H   H21       1.0  0.10640  0.53880  0.69300  1.0000
  H   H22       1.0  0.89360  0.03880  0.30700  1.0000
  C   C37       1.0  0.97100  0.57140  0.62140  1.0000
  C   C38       1.0  0.02900  0.07140  0.37860  1.0000
  H   H23       1.0  0.93470  0.53860  0.60530  1.0000
  H   H24       1.0  0.06530  0.03860  0.39470  1.0000
  C   C39       1.0  0.26110  0.62060  0.75230  1.0000
  C   C40       1.0  0.73890  0.12060  0.24770  1.0000
  C   C41       1.0  0.30500  0.66620  0.78110  1.0000
  C   C42       1.0  0.69500  0.16620  0.21890  1.0000
  H   H25       1.0  0.25810  0.69750  0.76670  1.0000
  H   H26       1.0  0.74190  0.19750  0.23330  1.0000
  C   C43       1.0  0.42100  0.66700  0.83320  1.0000
  C   C44       1.0  0.57900  0.16700  0.16680  1.0000
  H   H27       1.0  0.45980  0.69960  0.84820  1.0000
  H   H28       1.0  0.54020  0.19960  0.15180  1.0000
  C   C45       1.0  0.43500  0.57920  0.83390  1.0000
  C   C46       1.0  0.56500  0.07920  0.16610  1.0000
  H   H29       1.0  0.48100  0.54840  0.85110  1.0000
  H   H30       1.0  0.51900  0.04840  0.14890  1.0000
  C   C47       1.0  0.32600  0.57480  0.78130  1.0000
  C   C48       1.0  0.67400  0.07480  0.21870  1.0000
  H   H31       1.0  0.29500  0.54160  0.76440  1.0000
  H   H32       1.0  0.70500  0.04160  0.23560  1.0000
  C   C49       1.0  0.79120  0.60340  0.35200  1.0000
  C   C50       1.0  0.20880  0.10340  0.64800  1.0000
  H   H33       1.0  0.69440  0.60410  0.34680  1.0000
  H   H34       1.0  0.30560  0.10410  0.65320  1.0000
  C   C51       1.0  0.85350  0.59590  0.29260  1.0000
  C   C52       1.0  0.14650  0.09590  0.70740  1.0000
  H   H35       1.0  0.80120  0.58930  0.24740  1.0000
  H   H36       1.0  0.19880  0.08930  0.75260  1.0000
  C   C53       1.0  0.99800  0.59830  0.29970  1.0000
  C   C54       1.0  0.00200  0.09830  0.70030  1.0000
  C   C55       1.0  0.07280  0.60680  0.36690  1.0000
  C   C56       1.0  0.92720  0.10680  0.63310  1.0000
  H   H37       1.0  0.16970  0.60780  0.37360  1.0000
  H   H38       1.0  0.83030  0.10780  0.62640  1.0000
  C   C57       1.0  0.99710  0.61360  0.42440  1.0000
  C   C58       1.0  0.00290  0.11360  0.57560  1.0000
  H   H39       1.0  0.04590  0.62150  0.47000  1.0000
  H   H40       1.0  0.95410  0.12150  0.53000  1.0000
  C   C59       1.0  0.07090  0.59050  0.23500  1.0000
  C   C60       1.0  0.92910  0.09050  0.76500  1.0000
  C   C61       1.0  0.00400  0.58330  0.16850  1.0000
  C   C62       1.0  0.99600  0.08330  0.83150  1.0000
  H   H41       1.0  0.90760  0.58020  0.16130  1.0000
  H   H42       1.0  0.09240  0.08020  0.83870  1.0000
  C   C63       1.0  0.07700  0.58020  0.10990  1.0000
  C   C64       1.0  0.92300  0.08020  0.89010  1.0000
  H   H43       1.0  0.02530  0.57480  0.06430  1.0000
  H   H44       1.0  0.97470  0.07480  0.93570  1.0000
  C   C65       1.0  0.27200  0.59120  0.17990  1.0000
  C   C66       1.0  0.72800  0.09120  0.82010  1.0000
  H   H45       1.0  0.36850  0.59400  0.18590  1.0000
  H   H46       1.0  0.63150  0.09400  0.81410  1.0000
  C   C67       1.0  0.21000  0.59460  0.23920  1.0000
  C   C68       1.0  0.79000  0.09460  0.76080  1.0000
  H   H47       1.0  0.26310  0.59990  0.28440  1.0000
  H   H48       1.0  0.73690  0.09990  0.71560  1.0000
