data_image0
_chemical_formula_structural       U8O64C8H8C4H8C4H8C12H8C4H8C4H8C12H8C4H8C4H8C4
_chemical_formula_sum              "U8 O64 C60 H72"
_cell_length_a       9.164
_cell_length_b       17.4116
_cell_length_c       20.627
_cell_angle_alpha    90
_cell_angle_beta     93.461
_cell_angle_gamma    90

_space_group_name_H-M_alt    "P 1"
_space_group_IT_number       1

loop_
  _space_group_symop_operation_xyz
  'x, y, z'

loop_
  _atom_site_type_symbol
  _atom_site_label
  _atom_site_symmetry_multiplicity
  _atom_site_fract_x
  _atom_site_fract_y
  _atom_site_fract_z
  _atom_site_occupancy
  U   U1        1.0  0.11216  0.30764  0.36249  1.0000
  U   U2        1.0  0.38784  0.80764  0.13751  1.0000
  U   U3        1.0  0.88784  0.69236  0.63751  1.0000
  U   U4        1.0  0.61216  0.19236  0.86249  1.0000
  U   U5        1.0  0.35638  0.30379  0.63526  1.0000
  U   U6        1.0  0.14362  0.80379  0.86474  1.0000
  U   U7        1.0  0.64362  0.69621  0.36474  1.0000
  U   U8        1.0  0.85638  0.19621  0.13526  1.0000
  O   O1        1.0  0.25940  0.31500  0.42050  1.0000
  O   O2        1.0  0.24060  0.81500  0.07950  1.0000
  O   O3        1.0  0.74060  0.68500  0.57950  1.0000
  O   O4        1.0  0.75940  0.18500  0.92050  1.0000
  O   O5        1.0  0.96310  0.30110  0.30420  1.0000
  O   O6        1.0  0.53690  0.80110  0.19580  1.0000
  O   O7        1.0  0.03690  0.69890  0.69580  1.0000
  O   O8        1.0  0.46310  0.19890  0.80420  1.0000
  O   O9        1.0  0.51790  0.28160  0.68030  1.0000
  O   O10       1.0  0.98210  0.78160  0.81970  1.0000
  O   O11       1.0  0.48210  0.71840  0.31970  1.0000
  O   O12       1.0  0.01790  0.21840  0.18030  1.0000
  O   O13       1.0  0.19370  0.32710  0.58710  1.0000
  O   O14       1.0  0.30630  0.82710  0.91290  1.0000
  O   O15       1.0  0.80630  0.67290  0.41290  1.0000
  O   O16       1.0  0.69370  0.17290  0.08710  1.0000
  O   O17       1.0  0.93320  0.31150  0.44770  1.0000
  O   O18       1.0  0.56680  0.81150  0.05230  1.0000
  O   O19       1.0  0.06680  0.68850  0.55230  1.0000
  O   O20       1.0  0.43320  0.18850  0.94770  1.0000
  O   O21       1.0  0.00120  0.19780  0.41870  1.0000
  O   O22       1.0  0.49880  0.69780  0.08130  1.0000
  O   O23       1.0  0.99880  0.80220  0.58130  1.0000
  O   O24       1.0  0.50120  0.30220  0.91870  1.0000
  O   O25       1.0  0.50310  0.29930  0.53740  1.0000
  O   O26       1.0  0.99690  0.79930  0.96260  1.0000
  O   O27       1.0  0.49690  0.70070  0.46260  1.0000
  O   O28       1.0  0.00310  0.20070  0.03740  1.0000
  O   O29       1.0  0.37280  0.19720  0.55910  1.0000
  O   O30       1.0  0.12720  0.69720  0.94090  1.0000
  O   O31       1.0  0.62720  0.80280  0.44090  1.0000
  O   O32       1.0  0.87280  0.30280  0.05910  1.0000
  O   O33       1.0  0.02790  0.43750  0.38600  1.0000
  O   O34       1.0  0.47210  0.93750  0.11400  1.0000
  O   O35       1.0  0.97210  0.56250  0.61400  1.0000
  O   O36       1.0  0.52790  0.06250  0.88600  1.0000
  O   O37       1.0  0.18730  0.42770  0.31230  1.0000
  O   O38       1.0  0.31270  0.92770  0.18770  1.0000
  O   O39       1.0  0.81270  0.57230  0.68770  1.0000
  O   O40       1.0  0.68730  0.07230  0.81230  1.0000
  O   O41       1.0  0.22830  0.78760  0.22480  1.0000
  O   O42       1.0  0.27170  0.28760  0.27520  1.0000
  O   O43       1.0  0.77170  0.21240  0.77520  1.0000
  O   O44       1.0  0.72830  0.71240  0.72480  1.0000
  O   O45       1.0  0.29730  0.68370  0.17670  1.0000
  O   O46       1.0  0.20270  0.18370  0.32330  1.0000
  O   O47       1.0  0.70270  0.31630  0.82330  1.0000
  O   O48       1.0  0.79730  0.81630  0.67670  1.0000
  O   O49       1.0  0.21680  0.28740  0.72920  1.0000
  O   O50       1.0  0.28320  0.78740  0.77080  1.0000
  O   O51       1.0  0.78320  0.71260  0.27080  1.0000
  O   O52       1.0  0.71680  0.21260  0.22920  1.0000
  O   O53       1.0  0.25350  0.18300  0.67450  1.0000
  O   O54       1.0  0.24650  0.68300  0.82550  1.0000
  O   O55       1.0  0.74650  0.81700  0.32550  1.0000
  O   O56       1.0  0.75350  0.31700  0.17450  1.0000
  O   O57       1.0  0.03860  0.93270  0.88730  1.0000
  O   O58       1.0  0.46140  0.43270  0.61270  1.0000
  O   O59       1.0  0.96140  0.06730  0.11270  1.0000
  O   O60       1.0  0.53860  0.56730  0.38730  1.0000
  O   O61       1.0  0.16880  0.92490  0.80310  1.0000
  O   O62       1.0  0.33120  0.42490  0.69690  1.0000
  O   O63       1.0  0.83120  0.07510  0.19690  1.0000
  O   O64       1.0  0.66880  0.57510  0.30310  1.0000
  C   C1        1.0  0.91650  0.24060  0.44860  1.0000
  C   C2        1.0  0.58350  0.74060  0.05140  1.0000
  C   C3        1.0  0.08350  0.75940  0.55140  1.0000
  C   C4        1.0  0.41650  0.25940  0.94860  1.0000
  C   C5        1.0  0.78570  0.20530  0.48090  1.0000
  C   C6        1.0  0.71430  0.70530  0.01910  1.0000
  C   C7        1.0  0.21430  0.79470  0.51910  1.0000
  C   C8        1.0  0.28570  0.29470  0.98090  1.0000
  H   H1        1.0  0.77530  0.22940  0.52390  1.0000
  H   H2        1.0  0.72470  0.72940  0.97610  1.0000
  H   H3        1.0  0.22470  0.77060  0.47610  1.0000
  H   H4        1.0  0.27530  0.27060  0.02390  1.0000
  H   H5        1.0  0.80170  0.14960  0.48760  1.0000
  H   H6        1.0  0.69830  0.64960  0.01240  1.0000
  H   H7        1.0  0.19830  0.85040  0.51240  1.0000
  H   H8        1.0  0.30170  0.35040  0.98760  1.0000
  C   C9        1.0  0.64560  0.21850  0.43730  1.0000
  C   C10       1.0  0.85440  0.71850  0.06270  1.0000
  C   C11       1.0  0.35440  0.78150  0.56270  1.0000
  C   C12       1.0  0.14560  0.28150  0.93730  1.0000
  H   H9        1.0  0.63190  0.27430  0.43030  1.0000
  H   H10       1.0  0.86810  0.77430  0.06970  1.0000
  H   H11       1.0  0.36810  0.72570  0.56970  1.0000
  H   H12       1.0  0.13190  0.22570  0.93030  1.0000
  H   H13       1.0  0.65750  0.19440  0.39450  1.0000
  H   H14       1.0  0.84250  0.69440  0.10550  1.0000
  H   H15       1.0  0.34250  0.80560  0.60550  1.0000
  H   H16       1.0  0.15750  0.30560  0.89450  1.0000
  C   C13       1.0  0.51180  0.18610  0.46570  1.0000
  C   C14       1.0  0.98820  0.68610  0.03430  1.0000
  C   C15       1.0  0.48820  0.81390  0.53430  1.0000
  C   C16       1.0  0.01180  0.31390  0.96570  1.0000
  H   H17       1.0  0.53170  0.13230  0.47890  1.0000
  H   H18       1.0  0.96830  0.63230  0.02110  1.0000
  H   H19       1.0  0.46830  0.86770  0.52110  1.0000
  H   H20       1.0  0.03170  0.36770  0.97890  1.0000
  H   H21       1.0  0.43090  0.18560  0.43170  1.0000
  H   H22       1.0  0.06910  0.68560  0.06830  1.0000
  H   H23       1.0  0.56910  0.81440  0.56830  1.0000
  H   H24       1.0  0.93090  0.31440  0.93170  1.0000
  C   C17       1.0  0.46310  0.23000  0.52350  1.0000
  C   C18       1.0  0.03690  0.73000  0.97650  1.0000
  C   C19       1.0  0.53690  0.77000  0.47650  1.0000
  C   C20       1.0  0.96310  0.27000  0.02350  1.0000
  C   C21       1.0  0.10210  0.46900  0.34200  1.0000
  C   C22       1.0  0.39790  0.96900  0.15800  1.0000
  C   C23       1.0  0.89790  0.53100  0.65800  1.0000
  C   C24       1.0  0.60210  0.03100  0.84200  1.0000
  C   C25       1.0  0.08060  0.55300  0.32800  1.0000
  C   C26       1.0  0.41940  0.05300  0.17200  1.0000
  C   C27       1.0  0.91940  0.44700  0.67200  1.0000
  C   C28       1.0  0.58060  0.94700  0.82800  1.0000
  H   H25       1.0  0.09740  0.58170  0.36920  1.0000
  H   H26       1.0  0.40260  0.08170  0.13080  1.0000
  H   H27       1.0  0.90260  0.41830  0.63080  1.0000
  H   H28       1.0  0.59740  0.91830  0.86920  1.0000
  H   H29       1.0  0.97750  0.56130  0.31250  1.0000
  H   H30       1.0  0.52250  0.06130  0.18750  1.0000
  H   H31       1.0  0.02250  0.43870  0.68750  1.0000
  H   H32       1.0  0.47750  0.93870  0.81250  1.0000
  C   C29       1.0  0.17950  0.58730  0.27780  1.0000
  C   C30       1.0  0.32050  0.08730  0.22220  1.0000
  C   C31       1.0  0.82050  0.41270  0.72220  1.0000
  C   C32       1.0  0.67950  0.91270  0.77780  1.0000
  H   H33       1.0  0.28340  0.58030  0.29250  1.0000
  H   H34       1.0  0.21660  0.08030  0.20750  1.0000
  H   H35       1.0  0.71660  0.41970  0.70750  1.0000
  H   H36       1.0  0.78340  0.91970  0.79250  1.0000
  H   H37       1.0  0.16200  0.56070  0.23560  1.0000
  H   H38       1.0  0.33800  0.06070  0.26440  1.0000
  H   H39       1.0  0.83800  0.43930  0.76440  1.0000
  H   H40       1.0  0.66200  0.93930  0.73560  1.0000
  C   C33       1.0  0.14570  0.67080  0.27010  1.0000
  C   C34       1.0  0.35430  0.17080  0.22990  1.0000
  C   C35       1.0  0.85430  0.32920  0.72990  1.0000
  C   C36       1.0  0.64570  0.82920  0.77010  1.0000
  H   H41       1.0  0.16350  0.69570  0.31300  1.0000
  H   H42       1.0  0.33650  0.19570  0.18700  1.0000
  H   H43       1.0  0.83650  0.30430  0.68700  1.0000
  H   H44       1.0  0.66350  0.80430  0.81300  1.0000
  H   H45       1.0  0.04020  0.67600  0.25760  1.0000
  H   H46       1.0  0.45980  0.17600  0.24240  1.0000
  H   H47       1.0  0.95980  0.32400  0.74240  1.0000
  H   H48       1.0  0.54020  0.82400  0.75760  1.0000
  C   C37       1.0  0.22940  0.71450  0.22160  1.0000
  C   C38       1.0  0.27060  0.21450  0.27840  1.0000
  C   C39       1.0  0.77060  0.28550  0.77840  1.0000
  C   C40       1.0  0.72940  0.78550  0.72160  1.0000
  C   C41       1.0  0.20460  0.21490  0.72330  1.0000
  C   C42       1.0  0.29540  0.71490  0.77670  1.0000
  C   C43       1.0  0.79540  0.78510  0.27670  1.0000
  C   C44       1.0  0.70460  0.28510  0.22330  1.0000
  C   C45       1.0  0.13040  0.17100  0.77450  1.0000
  C   C46       1.0  0.36960  0.67100  0.72550  1.0000
  C   C47       1.0  0.86960  0.82900  0.22550  1.0000
  C   C48       1.0  0.63040  0.32900  0.27450  1.0000
  H   H49       1.0  0.02370  0.17940  0.76800  1.0000
  H   H50       1.0  0.47630  0.67940  0.73200  1.0000
  H   H51       1.0  0.97630  0.82060  0.23200  1.0000
  H   H52       1.0  0.52370  0.32060  0.26800  1.0000
  H   H53       1.0  0.16210  0.19270  0.81750  1.0000
  H   H54       1.0  0.33790  0.69270  0.68250  1.0000
  H   H55       1.0  0.83790  0.80730  0.18250  1.0000
  H   H56       1.0  0.66210  0.30730  0.31750  1.0000
  C   C49       1.0  0.15880  0.08470  0.77620  1.0000
  C   C50       1.0  0.34120  0.58470  0.72380  1.0000
  C   C51       1.0  0.84120  0.91530  0.22380  1.0000
  C   C52       1.0  0.65880  0.41530  0.27620  1.0000
  H   H57       1.0  0.12860  0.06170  0.73360  1.0000
  H   H58       1.0  0.37140  0.56170  0.76640  1.0000
  H   H59       1.0  0.87140  0.93830  0.26640  1.0000
  H   H60       1.0  0.62860  0.43830  0.23360  1.0000
  H   H61       1.0  0.26450  0.07480  0.78520  1.0000
  H   H62       1.0  0.23550  0.57480  0.71480  1.0000
  H   H63       1.0  0.73550  0.92520  0.21480  1.0000
  H   H64       1.0  0.76450  0.42520  0.28520  1.0000
  C   C53       1.0  0.07230  0.04850  0.82910  1.0000
  C   C54       1.0  0.42770  0.54850  0.67090  1.0000
  C   C55       1.0  0.92770  0.95150  0.17090  1.0000
  C   C56       1.0  0.57230  0.45150  0.32910  1.0000
  H   H65       1.0  0.09850  0.07530  0.87050  1.0000
  H   H66       1.0  0.40150  0.57530  0.62950  1.0000
  H   H67       1.0  0.90150  0.92470  0.12950  1.0000
  H   H68       1.0  0.59850  0.42470  0.37050  1.0000
  H   H69       1.0  0.96710  0.05780  0.81830  1.0000
  H   H70       1.0  0.53290  0.55780  0.68170  1.0000
  H   H71       1.0  0.03290  0.94220  0.18170  1.0000
  H   H72       1.0  0.46710  0.44220  0.31830  1.0000
  C   C57       1.0  0.09420  0.96430  0.83970  1.0000
  C   C58       1.0  0.40580  0.46430  0.66030  1.0000
  C   C59       1.0  0.90580  0.03570  0.16030  1.0000
  C   C60       1.0  0.59420  0.53570  0.33970  1.0000
