data_image0
_chemical_formula_structural       Np8O64C8H8C4H8C4H8C12H8C4H8C4H8C12H8C4H8C4H8C4
_chemical_formula_sum              "Np8 O64 C60 H72"
_cell_length_a       17.6879
_cell_length_b       16.9141
_cell_length_c       15.437
_cell_angle_alpha    90
_cell_angle_beta     100.021
_cell_angle_gamma    90

_space_group_name_H-M_alt    "P 1"
_space_group_IT_number       1

loop_
  _space_group_symop_operation_xyz
  'x, y, z'

loop_
  _atom_site_type_symbol
  _atom_site_label
  _atom_site_symmetry_multiplicity
  _atom_site_fract_x
  _atom_site_fract_y
  _atom_site_fract_z
  _atom_site_occupancy
  Np  Np1       1.0  0.12425  0.56985  0.69400  1.0000
  Np  Np2       1.0  0.87575  0.06985  0.80600  1.0000
  Np  Np3       1.0  0.87575  0.43015  0.30600  1.0000
  Np  Np4       1.0  0.12425  0.93015  0.19400  1.0000
  Np  Np5       1.0  0.38439  0.57429  0.32217  1.0000
  Np  Np6       1.0  0.61561  0.07429  0.17783  1.0000
  Np  Np7       1.0  0.61561  0.42571  0.67783  1.0000
  Np  Np8       1.0  0.38439  0.92571  0.82217  1.0000
  O   O1        1.0  0.07628  0.57192  0.57824  1.0000
  O   O2        1.0  0.92372  0.07192  0.92176  1.0000
  O   O3        1.0  0.92372  0.42808  0.42176  1.0000
  O   O4        1.0  0.07628  0.92808  0.07824  1.0000
  O   O5        1.0  0.17447  0.56713  0.81008  1.0000
  O   O6        1.0  0.82553  0.06713  0.68992  1.0000
  O   O7        1.0  0.82553  0.43287  0.18992  1.0000
  O   O8        1.0  0.17447  0.93287  0.31008  1.0000
  O   O9        1.0  0.43055  0.56650  0.43804  1.0000
  O   O10       1.0  0.56945  0.06650  0.06196  1.0000
  O   O11       1.0  0.56945  0.43350  0.56196  1.0000
  O   O12       1.0  0.43055  0.93350  0.93804  1.0000
  O   O13       1.0  0.33666  0.57963  0.20584  1.0000
  O   O14       1.0  0.66334  0.07963  0.29416  1.0000
  O   O15       1.0  0.66334  0.42037  0.79416  1.0000
  O   O16       1.0  0.33666  0.92037  0.70584  1.0000
  O   O17       1.0  0.18373  0.44169  0.65056  1.0000
  O   O18       1.0  0.81627  0.94169  0.84944  1.0000
  O   O19       1.0  0.81627  0.55831  0.34944  1.0000
  O   O20       1.0  0.18373  0.05831  0.15056  1.0000
  O   O21       1.0  0.24753  0.55012  0.63456  1.0000
  O   O22       1.0  0.75247  0.05012  0.86544  1.0000
  O   O23       1.0  0.75247  0.44988  0.36544  1.0000
  O   O24       1.0  0.24753  0.94988  0.13456  1.0000
  O   O25       1.0  0.31561  0.44693  0.34965  1.0000
  O   O26       1.0  0.68439  0.94693  0.15035  1.0000
  O   O27       1.0  0.68439  0.55307  0.65035  1.0000
  O   O28       1.0  0.31561  0.05307  0.84965  1.0000
  O   O29       1.0  0.25690  0.55650  0.37584  1.0000
  O   O30       1.0  0.74310  0.05650  0.12416  1.0000
  O   O31       1.0  0.74310  0.44350  0.62416  1.0000
  O   O32       1.0  0.25690  0.94350  0.87584  1.0000
  O   O33       1.0  0.04480  0.45320  0.72584  1.0000
  O   O34       1.0  0.95520  0.95320  0.77416  1.0000
  O   O35       1.0  0.95520  0.54680  0.27416  1.0000
  O   O36       1.0  0.04480  0.04680  0.22584  1.0000
  O   O37       1.0  0.99853  0.57068  0.74689  1.0000
  O   O38       1.0  0.00147  0.07068  0.75311  1.0000
  O   O39       1.0  0.00147  0.42932  0.25311  1.0000
  O   O40       1.0  0.99853  0.92932  0.24689  1.0000
  O   O41       1.0  0.81125  0.19932  0.82542  1.0000
  O   O42       1.0  0.18875  0.69932  0.67458  1.0000
  O   O43       1.0  0.18875  0.80068  0.17458  1.0000
  O   O44       1.0  0.81125  0.30068  0.32542  1.0000
  O   O45       1.0  0.92596  0.20889  0.79148  1.0000
  O   O46       1.0  0.07404  0.70889  0.70852  1.0000
  O   O47       1.0  0.07404  0.79111  0.20852  1.0000
  O   O48       1.0  0.92596  0.29111  0.29148  1.0000
  O   O49       1.0  0.45794  0.45786  0.27849  1.0000
  O   O50       1.0  0.54206  0.95786  0.22151  1.0000
  O   O51       1.0  0.54206  0.54214  0.72151  1.0000
  O   O52       1.0  0.45794  0.04214  0.77849  1.0000
  O   O53       1.0  0.51217  0.57442  0.27344  1.0000
  O   O54       1.0  0.48783  0.07442  0.22656  1.0000
  O   O55       1.0  0.48783  0.42558  0.72656  1.0000
  O   O56       1.0  0.51217  0.92558  0.77344  1.0000
  O   O57       1.0  0.55949  0.21485  0.18153  1.0000
  O   O58       1.0  0.44051  0.71485  0.31847  1.0000
  O   O59       1.0  0.44051  0.78515  0.81847  1.0000
  O   O60       1.0  0.55949  0.28515  0.68153  1.0000
  O   O61       1.0  0.67560  0.20411  0.15098  1.0000
  O   O62       1.0  0.32440  0.70411  0.34902  1.0000
  O   O63       1.0  0.32440  0.79589  0.84902  1.0000
  O   O64       1.0  0.67560  0.29589  0.65098  1.0000
  C   C1        1.0  0.23825  0.47661  0.62215  1.0000
  C   C2        1.0  0.76175  0.97661  0.87785  1.0000
  C   C3        1.0  0.76175  0.52339  0.37785  1.0000
  C   C4        1.0  0.23825  0.02339  0.12215  1.0000
  C   C5        1.0  0.29056  0.43048  0.57360  1.0000
  C   C6        1.0  0.70944  0.93048  0.92640  1.0000
  C   C7        1.0  0.70944  0.56952  0.42640  1.0000
  C   C8        1.0  0.29056  0.06952  0.07360  1.0000
  H   H1        1.0  0.32220  0.39410  0.61530  1.0000
  H   H2        1.0  0.67780  0.89410  0.88470  1.0000
  H   H3        1.0  0.67780  0.60590  0.38470  1.0000
  H   H4        1.0  0.32220  0.10590  0.11530  1.0000
  H   H5        1.0  0.32570  0.46760  0.55090  1.0000
  H   H6        1.0  0.67430  0.96760  0.94910  1.0000
  H   H7        1.0  0.67430  0.53240  0.44910  1.0000
  H   H8        1.0  0.32570  0.03240  0.05090  1.0000
  C   C9        1.0  0.24679  0.38251  0.49673  1.0000
  C   C10       1.0  0.75321  0.88251  0.00327  1.0000
  C   C11       1.0  0.75321  0.61749  0.50327  1.0000
  C   C12       1.0  0.24679  0.11749  0.99673  1.0000
  H   H9        1.0  0.20830  0.34890  0.51860  1.0000
  H   H10       1.0  0.79170  0.84890  0.98140  1.0000
  H   H11       1.0  0.79170  0.65110  0.48140  1.0000
  H   H12       1.0  0.20830  0.15110  0.01860  1.0000
  H   H13       1.0  0.28330  0.34710  0.47380  1.0000
  H   H14       1.0  0.71670  0.84710  0.02620  1.0000
  H   H15       1.0  0.71670  0.65290  0.52620  1.0000
  H   H16       1.0  0.28330  0.15290  0.97380  1.0000
  C   C13       1.0  0.20593  0.43433  0.42140  1.0000
  C   C14       1.0  0.79407  0.93433  0.07860  1.0000
  C   C15       1.0  0.79407  0.56567  0.57860  1.0000
  C   C16       1.0  0.20593  0.06567  0.92140  1.0000
  H   H17       1.0  0.17550  0.40020  0.37610  1.0000
  H   H18       1.0  0.82450  0.90020  0.12390  1.0000
  H   H19       1.0  0.82450  0.59980  0.62390  1.0000
  H   H20       1.0  0.17550  0.09980  0.87610  1.0000
  H   H21       1.0  0.17000  0.47050  0.44420  1.0000
  H   H22       1.0  0.83000  0.97050  0.05580  1.0000
  H   H23       1.0  0.83000  0.52950  0.55580  1.0000
  H   H24       1.0  0.17000  0.02950  0.94420  1.0000
  C   C17       1.0  0.26199  0.48234  0.37970  1.0000
  C   C18       1.0  0.73801  0.98234  0.12030  1.0000
  C   C19       1.0  0.73801  0.51766  0.62030  1.0000
  C   C20       1.0  0.26199  0.01766  0.87970  1.0000
  C   C21       1.0  0.99291  0.49561  0.74860  1.0000
  C   C22       1.0  0.00709  0.99561  0.75140  1.0000
  C   C23       1.0  0.00709  0.50439  0.25140  1.0000
  C   C24       1.0  0.99291  0.00439  0.24860  1.0000
  C   C25       1.0  0.92392  0.45944  0.77870  1.0000
  C   C26       1.0  0.07608  0.95944  0.72130  1.0000
  C   C27       1.0  0.07608  0.54056  0.22130  1.0000
  C   C28       1.0  0.92392  0.04056  0.27870  1.0000
  H   H25       1.0  0.87670  0.47740  0.73950  1.0000
  H   H26       1.0  0.12330  0.97740  0.76050  1.0000
  H   H27       1.0  0.12330  0.52260  0.26050  1.0000
  H   H28       1.0  0.87670  0.02260  0.23950  1.0000
  H   H29       1.0  0.92160  0.47800  0.83900  1.0000
  H   H30       1.0  0.07840  0.97800  0.66100  1.0000
  H   H31       1.0  0.07840  0.52200  0.16100  1.0000
  H   H32       1.0  0.92160  0.02200  0.33900  1.0000
  C   C29       1.0  0.92682  0.37001  0.77810  1.0000
  C   C30       1.0  0.07318  0.87001  0.72190  1.0000
  C   C31       1.0  0.07318  0.62999  0.22190  1.0000
  C   C32       1.0  0.92682  0.12999  0.27810  1.0000
  H   H33       1.0  0.97360  0.35250  0.81840  1.0000
  H   H34       1.0  0.02640  0.85250  0.68160  1.0000
  H   H35       1.0  0.02640  0.64750  0.18160  1.0000
  H   H36       1.0  0.97360  0.14750  0.31840  1.0000
  H   H37       1.0  0.93110  0.35200  0.71810  1.0000
  H   H38       1.0  0.06890  0.85200  0.78190  1.0000
  H   H39       1.0  0.06890  0.64800  0.28190  1.0000
  H   H40       1.0  0.93110  0.14800  0.21810  1.0000
  C   C33       1.0  0.85713  0.33046  0.80550  1.0000
  C   C34       1.0  0.14287  0.83046  0.69450  1.0000
  C   C35       1.0  0.14287  0.66954  0.19450  1.0000
  C   C36       1.0  0.85713  0.16954  0.30550  1.0000
  H   H41       1.0  0.85120  0.34950  0.86450  1.0000
  H   H42       1.0  0.14880  0.84950  0.63550  1.0000
  H   H43       1.0  0.14880  0.65050  0.13550  1.0000
  H   H44       1.0  0.85120  0.15050  0.36450  1.0000
  H   H45       1.0  0.81030  0.34530  0.76350  1.0000
  H   H46       1.0  0.18970  0.84530  0.73650  1.0000
  H   H47       1.0  0.18970  0.65470  0.23650  1.0000
  H   H48       1.0  0.81030  0.15470  0.26350  1.0000
  C   C37       1.0  0.86548  0.24172  0.80740  1.0000
  C   C38       1.0  0.13452  0.74172  0.69260  1.0000
  C   C39       1.0  0.13452  0.75828  0.19260  1.0000
  C   C40       1.0  0.86548  0.25828  0.30740  1.0000
  C   C41       1.0  0.51133  0.50018  0.25900  1.0000
  C   C42       1.0  0.48867  0.00018  0.24100  1.0000
  C   C43       1.0  0.48867  0.49982  0.74100  1.0000
  C   C44       1.0  0.51133  0.99982  0.75900  1.0000
  C   C45       1.0  0.57478  0.46420  0.21820  1.0000
  C   C46       1.0  0.42522  0.96420  0.28180  1.0000
  C   C47       1.0  0.42522  0.53580  0.78180  1.0000
  C   C48       1.0  0.57478  0.03580  0.71820  1.0000
  H   H49       1.0  0.62470  0.47490  0.25650  1.0000
  H   H50       1.0  0.37530  0.97490  0.24350  1.0000
  H   H51       1.0  0.37530  0.52510  0.74350  1.0000
  H   H52       1.0  0.62470  0.02510  0.75650  1.0000
  H   H53       1.0  0.57550  0.48960  0.16060  1.0000
  H   H54       1.0  0.42450  0.98960  0.33940  1.0000
  H   H55       1.0  0.42450  0.51040  0.83940  1.0000
  H   H56       1.0  0.57550  0.01040  0.66060  1.0000
  C   C49       1.0  0.56518  0.37595  0.20530  1.0000
  C   C50       1.0  0.43482  0.87595  0.29470  1.0000
  C   C51       1.0  0.43482  0.62405  0.79470  1.0000
  C   C52       1.0  0.56518  0.12405  0.70530  1.0000
  H   H57       1.0  0.51670  0.36590  0.16410  1.0000
  H   H58       1.0  0.48330  0.86590  0.33590  1.0000
  H   H59       1.0  0.48330  0.63410  0.83590  1.0000
  H   H60       1.0  0.51670  0.13410  0.66410  1.0000
  H   H61       1.0  0.56050  0.35150  0.26240  1.0000
  H   H62       1.0  0.43950  0.85150  0.23760  1.0000
  H   H63       1.0  0.43950  0.64850  0.73760  1.0000
  H   H64       1.0  0.56050  0.14850  0.76240  1.0000
  C   C53       1.0  0.63042  0.33584  0.17000  1.0000
  C   C54       1.0  0.36958  0.83584  0.33000  1.0000
  C   C55       1.0  0.36958  0.66416  0.83000  1.0000
  C   C56       1.0  0.63042  0.16416  0.67000  1.0000
  H   H65       1.0  0.63200  0.35570  0.11000  1.0000
  H   H66       1.0  0.36800  0.85570  0.39000  1.0000
  H   H67       1.0  0.36800  0.64430  0.89000  1.0000
  H   H68       1.0  0.63200  0.14430  0.61000  1.0000
  H   H69       1.0  0.67980  0.34950  0.20790  1.0000
  H   H70       1.0  0.32020  0.84950  0.29210  1.0000
  H   H71       1.0  0.32020  0.65050  0.79210  1.0000
  H   H72       1.0  0.67980  0.15050  0.70790  1.0000
  C   C57       1.0  0.62113  0.24701  0.16710  1.0000
  C   C58       1.0  0.37887  0.74701  0.33290  1.0000
  C   C59       1.0  0.37887  0.75299  0.83290  1.0000
  C   C60       1.0  0.62113  0.25299  0.66710  1.0000
