data_image0
_chemical_formula_structural       Zn24N24O8N16O16N16C8O8C32N8C8N8O8N8O8C8H8C72H8N8C8H64
_chemical_formula_sum              "Zn24 N88 O48 C136 H80"
_cell_length_a       17.6547
_cell_length_b       13.666
_cell_length_c       31.9413
_cell_angle_alpha    90
_cell_angle_beta     94.871
_cell_angle_gamma    90

_space_group_name_H-M_alt    "P 1"
_space_group_IT_number       1

loop_
  _space_group_symop_operation_xyz
  'x, y, z'

loop_
  _atom_site_type_symbol
  _atom_site_label
  _atom_site_symmetry_multiplicity
  _atom_site_fract_x
  _atom_site_fract_y
  _atom_site_fract_z
  _atom_site_occupancy
  Zn  Zn1       1.0  0.03726  0.08903  0.03888  1.0000
  Zn  Zn2       1.0  0.96274  0.08903  0.46112  1.0000
  Zn  Zn3       1.0  0.53726  0.58903  0.03888  1.0000
  Zn  Zn4       1.0  0.46274  0.58903  0.46112  1.0000
  Zn  Zn5       1.0  0.96274  0.91097  0.96112  1.0000
  Zn  Zn6       1.0  0.03726  0.91097  0.53888  1.0000
  Zn  Zn7       1.0  0.46274  0.41097  0.96112  1.0000
  Zn  Zn8       1.0  0.53726  0.41097  0.53888  1.0000
  Zn  Zn9       1.0  0.73592  0.09425  0.10516  1.0000
  Zn  Zn10      1.0  0.26408  0.09425  0.39484  1.0000
  Zn  Zn11      1.0  0.23592  0.59425  0.10516  1.0000
  Zn  Zn12      1.0  0.76408  0.59425  0.39484  1.0000
  Zn  Zn13      1.0  0.26408  0.90575  0.89484  1.0000
  Zn  Zn14      1.0  0.73592  0.90575  0.60516  1.0000
  Zn  Zn15      1.0  0.76408  0.40575  0.89484  1.0000
  Zn  Zn16      1.0  0.23592  0.40575  0.60516  1.0000
  Zn  Zn17      1.0  0.77079  0.96456  0.19181  1.0000
  Zn  Zn18      1.0  0.22921  0.96456  0.30819  1.0000
  Zn  Zn19      1.0  0.27079  0.46456  0.19181  1.0000
  Zn  Zn20      1.0  0.72921  0.46456  0.30819  1.0000
  Zn  Zn21      1.0  0.22921  0.03544  0.80819  1.0000
  Zn  Zn22      1.0  0.77079  0.03544  0.69181  1.0000
  Zn  Zn23      1.0  0.72921  0.53544  0.80819  1.0000
  Zn  Zn24      1.0  0.27079  0.53544  0.69181  1.0000
  N   N1        1.0  0.71355  0.90759  0.14006  1.0000
  N   N2        1.0  0.28645  0.90759  0.35994  1.0000
  N   N3        1.0  0.21355  0.40759  0.14006  1.0000
  N   N4        1.0  0.78645  0.40759  0.35994  1.0000
  N   N5        1.0  0.28645  0.09241  0.85994  1.0000
  N   N6        1.0  0.71355  0.09241  0.64006  1.0000
  N   N7        1.0  0.78645  0.59241  0.85994  1.0000
  N   N8        1.0  0.21355  0.59241  0.64006  1.0000
  N   N9        1.0  0.08701  0.96317  0.02663  1.0000
  N   N10       1.0  0.91299  0.96317  0.47337  1.0000
  N   N11       1.0  0.58701  0.46317  0.02663  1.0000
  N   N12       1.0  0.41299  0.46317  0.47337  1.0000
  N   N13       1.0  0.91299  0.03683  0.97337  1.0000
  N   N14       1.0  0.08701  0.03683  0.52663  1.0000
  N   N15       1.0  0.41299  0.53683  0.97337  1.0000
  N   N16       1.0  0.58701  0.53683  0.52663  1.0000
  N   N17       1.0  0.73408  0.10215  0.19730  1.0000
  N   N18       1.0  0.26592  0.10215  0.30270  1.0000
  N   N19       1.0  0.23408  0.60215  0.19730  1.0000
  N   N20       1.0  0.76592  0.60215  0.30270  1.0000
  N   N21       1.0  0.26592  0.89785  0.80270  1.0000
  N   N22       1.0  0.73408  0.89785  0.69730  1.0000
  N   N23       1.0  0.76592  0.39785  0.80270  1.0000
  N   N24       1.0  0.23408  0.39785  0.69730  1.0000
  O   O1        1.0  0.57568  0.72805  0.04086  1.0000
  O   O2        1.0  0.42432  0.72805  0.45914  1.0000
  O   O3        1.0  0.07568  0.22805  0.04086  1.0000
  O   O4        1.0  0.92432  0.22805  0.45914  1.0000
  O   O5        1.0  0.42432  0.27195  0.95914  1.0000
  O   O6        1.0  0.57568  0.27195  0.54086  1.0000
  O   O7        1.0  0.92432  0.77195  0.95914  1.0000
  O   O8        1.0  0.07568  0.77195  0.54086  1.0000
  N   N25       1.0  0.68949  0.96217  0.10557  1.0000
  N   N26       1.0  0.31051  0.96217  0.39443  1.0000
  N   N27       1.0  0.18949  0.46217  0.10557  1.0000
  N   N28       1.0  0.81051  0.46217  0.39443  1.0000
  N   N29       1.0  0.31051  0.03783  0.89443  1.0000
  N   N30       1.0  0.68949  0.03783  0.60557  1.0000
  N   N31       1.0  0.81051  0.53783  0.89443  1.0000
  N   N32       1.0  0.18949  0.53783  0.60557  1.0000
  N   N33       1.0  0.04296  0.88863  0.00972  1.0000
  N   N34       1.0  0.95704  0.88863  0.49028  1.0000
  N   N35       1.0  0.54296  0.38863  0.00972  1.0000
  N   N36       1.0  0.45704  0.38863  0.49028  1.0000
  N   N37       1.0  0.95704  0.11137  0.99028  1.0000
  N   N38       1.0  0.04296  0.11137  0.50972  1.0000
  N   N39       1.0  0.45704  0.61137  0.99028  1.0000
  N   N40       1.0  0.54296  0.61137  0.50972  1.0000
  O   O9        1.0  0.18544  0.66402  0.05820  1.0000
  O   O10       1.0  0.81456  0.66402  0.44180  1.0000
  O   O11       1.0  0.68544  0.16402  0.05820  1.0000
  O   O12       1.0  0.31456  0.16402  0.44180  1.0000
  O   O13       1.0  0.81456  0.33598  0.94180  1.0000
  O   O14       1.0  0.18544  0.33598  0.55820  1.0000
  O   O15       1.0  0.31456  0.83598  0.94180  1.0000
  O   O16       1.0  0.68544  0.83598  0.55820  1.0000
  O   O17       1.0  0.71125  0.43316  0.21883  1.0000
  O   O18       1.0  0.28875  0.43316  0.28117  1.0000
  O   O19       1.0  0.21125  0.93316  0.21883  1.0000
  O   O20       1.0  0.78875  0.93316  0.28117  1.0000
  O   O21       1.0  0.28875  0.56684  0.78117  1.0000
  O   O22       1.0  0.71125  0.56684  0.71883  1.0000
  O   O23       1.0  0.78875  0.06684  0.78117  1.0000
  O   O24       1.0  0.21125  0.06684  0.71883  1.0000
  N   N41       1.0  0.87852  0.98411  0.17556  1.0000
  N   N42       1.0  0.12148  0.98411  0.32444  1.0000
  N   N43       1.0  0.37852  0.48411  0.17556  1.0000
  N   N44       1.0  0.62148  0.48411  0.32444  1.0000
  N   N45       1.0  0.12148  0.01589  0.82444  1.0000
  N   N46       1.0  0.87852  0.01589  0.67556  1.0000
  N   N47       1.0  0.62148  0.51589  0.82444  1.0000
  N   N48       1.0  0.37852  0.51589  0.67556  1.0000
  N   N49       1.0  0.84813  0.06530  0.10815  1.0000
  N   N50       1.0  0.15187  0.06530  0.39185  1.0000
  N   N51       1.0  0.34813  0.56530  0.10815  1.0000
  N   N52       1.0  0.65187  0.56530  0.39185  1.0000
  N   N53       1.0  0.15187  0.93470  0.89185  1.0000
  N   N54       1.0  0.84813  0.93470  0.60815  1.0000
  N   N55       1.0  0.65187  0.43470  0.89185  1.0000
  N   N56       1.0  0.34813  0.43470  0.60815  1.0000
  C   C1        1.0  0.89393  0.09047  0.07831  1.0000
  C   C2        1.0  0.10607  0.09047  0.42169  1.0000
  C   C3        1.0  0.39393  0.59047  0.07831  1.0000
  C   C4        1.0  0.60607  0.59047  0.42169  1.0000
  C   C5        1.0  0.10607  0.90953  0.92169  1.0000
  C   C6        1.0  0.89393  0.90953  0.57831  1.0000
  C   C7        1.0  0.60607  0.40953  0.92169  1.0000
  C   C8        1.0  0.39393  0.40953  0.57831  1.0000
  O   O25       1.0  0.64159  0.63657  0.08729  1.0000
  O   O26       1.0  0.35841  0.63657  0.41271  1.0000
  O   O27       1.0  0.14159  0.13657  0.08729  1.0000
  O   O28       1.0  0.85841  0.13657  0.41271  1.0000
  O   O29       1.0  0.35841  0.36343  0.91271  1.0000
  O   O30       1.0  0.64159  0.36343  0.58729  1.0000
  O   O31       1.0  0.85841  0.86343  0.91271  1.0000
  O   O32       1.0  0.14159  0.86343  0.58729  1.0000
  C   C9        1.0  0.65434  0.90254  0.07746  1.0000
  C   C10       1.0  0.34566  0.90254  0.42254  1.0000
  C   C11       1.0  0.15434  0.40254  0.07746  1.0000
  C   C12       1.0  0.84566  0.40254  0.42254  1.0000
  C   C13       1.0  0.34566  0.09746  0.92254  1.0000
  C   C14       1.0  0.65434  0.09746  0.57746  1.0000
  C   C15       1.0  0.84566  0.59746  0.92254  1.0000
  C   C16       1.0  0.15434  0.59746  0.57746  1.0000
  C   C17       1.0  0.20618  0.75370  0.05885  1.0000
  C   C18       1.0  0.79382  0.75370  0.44115  1.0000
  C   C19       1.0  0.70618  0.25370  0.05885  1.0000
  C   C20       1.0  0.29382  0.25370  0.44115  1.0000
  C   C21       1.0  0.79382  0.24630  0.94115  1.0000
  C   C22       1.0  0.20618  0.24630  0.55885  1.0000
  C   C23       1.0  0.29382  0.74630  0.94115  1.0000
  C   C24       1.0  0.70618  0.74630  0.55885  1.0000
  C   C25       1.0  0.89755  0.02411  0.13881  1.0000
  C   C26       1.0  0.10245  0.02411  0.36119  1.0000
  C   C27       1.0  0.39755  0.52411  0.13881  1.0000
  C   C28       1.0  0.60245  0.52411  0.36119  1.0000
  C   C29       1.0  0.10245  0.97589  0.86119  1.0000
  C   C30       1.0  0.89755  0.97589  0.63881  1.0000
  C   C31       1.0  0.60245  0.47589  0.86119  1.0000
  C   C32       1.0  0.39755  0.47589  0.63881  1.0000
  C   C33       1.0  0.69402  0.81465  0.13227  1.0000
  C   C34       1.0  0.30598  0.81465  0.36773  1.0000
  C   C35       1.0  0.19402  0.31465  0.13227  1.0000
  C   C36       1.0  0.80598  0.31465  0.36773  1.0000
  C   C37       1.0  0.30598  0.18535  0.86773  1.0000
  C   C38       1.0  0.69402  0.18535  0.63227  1.0000
  C   C39       1.0  0.80598  0.68535  0.86773  1.0000
  C   C40       1.0  0.19402  0.68535  0.63227  1.0000
  N   N57       1.0  0.01151  0.95250  0.19101  1.0000
  N   N58       1.0  0.98849  0.95250  0.30899  1.0000
  N   N59       1.0  0.51151  0.45250  0.19101  1.0000
  N   N60       1.0  0.48849  0.45250  0.30899  1.0000
  N   N61       1.0  0.98849  0.04750  0.80899  1.0000
  N   N62       1.0  0.01151  0.04750  0.69101  1.0000
  N   N63       1.0  0.48849  0.54750  0.80899  1.0000
  N   N64       1.0  0.51151  0.54750  0.69101  1.0000
  C   C41       1.0  0.08052  0.80510  0.01816  1.0000
  C   C42       1.0  0.91948  0.80510  0.48184  1.0000
  C   C43       1.0  0.58052  0.30510  0.01816  1.0000
  C   C44       1.0  0.41948  0.30510  0.48184  1.0000
  C   C45       1.0  0.91948  0.19490  0.98184  1.0000
  C   C46       1.0  0.08052  0.19490  0.51816  1.0000
  C   C47       1.0  0.41948  0.69490  0.98184  1.0000
  C   C48       1.0  0.58052  0.69490  0.51816  1.0000
  N   N65       1.0  0.96728  0.07054  0.08660  1.0000
  N   N66       1.0  0.03272  0.07054  0.41340  1.0000
  N   N67       1.0  0.46728  0.57054  0.08660  1.0000
  N   N68       1.0  0.53272  0.57054  0.41340  1.0000
  N   N69       1.0  0.03272  0.92946  0.91340  1.0000
  N   N70       1.0  0.96728  0.92946  0.58660  1.0000
  N   N71       1.0  0.53272  0.42946  0.91340  1.0000
  N   N72       1.0  0.46728  0.42946  0.58660  1.0000
  O   O33       1.0  0.73030  0.34553  0.27644  1.0000
  O   O34       1.0  0.26970  0.34553  0.22356  1.0000
  O   O35       1.0  0.23030  0.84553  0.27644  1.0000
  O   O36       1.0  0.76970  0.84553  0.22356  1.0000
  O   O37       1.0  0.26970  0.65447  0.72356  1.0000
  O   O38       1.0  0.73030  0.65447  0.77644  1.0000
  O   O39       1.0  0.76970  0.15447  0.72356  1.0000
  O   O40       1.0  0.23030  0.15447  0.77644  1.0000
  N   N73       1.0  0.72000  0.15331  0.16086  1.0000
  N   N74       1.0  0.28000  0.15331  0.33914  1.0000
  N   N75       1.0  0.22000  0.65331  0.16086  1.0000
  N   N76       1.0  0.78000  0.65331  0.33914  1.0000
  N   N77       1.0  0.28000  0.84669  0.83914  1.0000
  N   N78       1.0  0.72000  0.84669  0.66086  1.0000
  N   N79       1.0  0.78000  0.34669  0.83914  1.0000
  N   N80       1.0  0.22000  0.34669  0.66086  1.0000
  O   O41       1.0  0.26784  0.78124  0.07596  1.0000
  O   O42       1.0  0.73216  0.78124  0.42404  1.0000
  O   O43       1.0  0.76784  0.28124  0.07596  1.0000
  O   O44       1.0  0.23216  0.28124  0.42404  1.0000
  O   O45       1.0  0.73216  0.21876  0.92404  1.0000
  O   O46       1.0  0.26784  0.21876  0.57596  1.0000
  O   O47       1.0  0.23216  0.71876  0.92404  1.0000
  O   O48       1.0  0.76784  0.71876  0.57596  1.0000
  C   C49       1.0  0.71098  0.24784  0.17069  1.0000
  C   C50       1.0  0.28902  0.24784  0.32931  1.0000
  C   C51       1.0  0.21098  0.74784  0.17069  1.0000
  C   C52       1.0  0.78902  0.74784  0.32931  1.0000
  C   C53       1.0  0.28902  0.75216  0.82931  1.0000
  C   C54       1.0  0.71098  0.75216  0.67069  1.0000
  C   C55       1.0  0.78902  0.25216  0.82931  1.0000
  C   C56       1.0  0.21098  0.25216  0.67069  1.0000
  H   H1        1.0  0.70000  0.29780  0.15140  1.0000
  H   H2        1.0  0.30000  0.29780  0.34860  1.0000
  H   H3        1.0  0.20000  0.79780  0.15140  1.0000
  H   H4        1.0  0.80000  0.79780  0.34860  1.0000
  H   H5        1.0  0.30000  0.70220  0.84860  1.0000
  H   H6        1.0  0.70000  0.70220  0.65140  1.0000
  H   H7        1.0  0.80000  0.20220  0.84860  1.0000
  H   H8        1.0  0.20000  0.20220  0.65140  1.0000
  C   C57       1.0  0.72048  0.25990  0.21381  1.0000
  C   C58       1.0  0.27952  0.25990  0.28619  1.0000
  C   C59       1.0  0.22048  0.75990  0.21381  1.0000
  C   C60       1.0  0.77952  0.75990  0.28619  1.0000
  C   C61       1.0  0.27952  0.74010  0.78619  1.0000
  C   C62       1.0  0.72048  0.74010  0.71381  1.0000
  C   C63       1.0  0.77952  0.24010  0.78619  1.0000
  C   C64       1.0  0.22048  0.24010  0.71381  1.0000
  C   C65       1.0  0.14976  0.82453  0.04007  1.0000
  C   C66       1.0  0.85024  0.82453  0.45993  1.0000
  C   C67       1.0  0.64976  0.32453  0.04007  1.0000
  C   C68       1.0  0.35024  0.32453  0.45993  1.0000
  C   C69       1.0  0.85024  0.17547  0.95993  1.0000
  C   C70       1.0  0.14976  0.17547  0.54007  1.0000
  C   C71       1.0  0.35024  0.67547  0.95993  1.0000
  C   C72       1.0  0.64976  0.67547  0.54007  1.0000
  C   C73       1.0  0.72024  0.35430  0.23676  1.0000
  C   C74       1.0  0.27976  0.35430  0.26324  1.0000
  C   C75       1.0  0.22024  0.85430  0.23676  1.0000
  C   C76       1.0  0.77976  0.85430  0.26324  1.0000
  C   C77       1.0  0.27976  0.64570  0.76324  1.0000
  C   C78       1.0  0.72024  0.64570  0.73676  1.0000
  C   C79       1.0  0.77976  0.14570  0.76324  1.0000
  C   C80       1.0  0.22024  0.14570  0.73676  1.0000
  C   C81       1.0  0.03109  0.99310  0.15474  1.0000
  C   C82       1.0  0.96891  0.99310  0.34526  1.0000
  C   C83       1.0  0.53109  0.49310  0.15474  1.0000
  C   C84       1.0  0.46891  0.49310  0.34526  1.0000
  C   C85       1.0  0.96891  0.00690  0.84526  1.0000
  C   C86       1.0  0.03109  0.00690  0.65474  1.0000
  C   C87       1.0  0.46891  0.50690  0.84526  1.0000
  C   C88       1.0  0.53109  0.50690  0.65474  1.0000
  C   C89       1.0  0.97075  0.02840  0.12609  1.0000
  C   C90       1.0  0.02925  0.02840  0.37391  1.0000
  C   C91       1.0  0.47075  0.52840  0.12609  1.0000
  C   C92       1.0  0.52925  0.52840  0.37391  1.0000
  C   C93       1.0  0.02925  0.97160  0.87391  1.0000
  C   C94       1.0  0.97075  0.97160  0.62609  1.0000
  C   C95       1.0  0.52925  0.47160  0.87391  1.0000
  C   C96       1.0  0.47075  0.47160  0.62609  1.0000
  C   C97       1.0  0.65591  0.80804  0.09294  1.0000
  C   C98       1.0  0.34409  0.80804  0.40706  1.0000
  C   C99       1.0  0.15591  0.30804  0.09294  1.0000
  C   C100      1.0  0.84409  0.30804  0.40706  1.0000
  C   C101      1.0  0.34409  0.19196  0.90706  1.0000
  C   C102      1.0  0.65591  0.19196  0.59294  1.0000
  C   C103      1.0  0.84409  0.69196  0.90706  1.0000
  C   C104      1.0  0.15591  0.69196  0.59294  1.0000
  C   C105      1.0  0.73519  0.16560  0.22897  1.0000
  C   C106      1.0  0.26481  0.16560  0.27103  1.0000
  C   C107      1.0  0.23519  0.66560  0.22897  1.0000
  C   C108      1.0  0.76481  0.66560  0.27103  1.0000
  C   C109      1.0  0.26481  0.83440  0.77103  1.0000
  C   C110      1.0  0.73519  0.83440  0.72897  1.0000
  C   C111      1.0  0.76481  0.33440  0.77103  1.0000
  C   C112      1.0  0.23519  0.33440  0.72897  1.0000
  C   C113      1.0  0.15090  0.92432  0.04475  1.0000
  C   C114      1.0  0.84910  0.92432  0.45525  1.0000
  C   C115      1.0  0.65090  0.42432  0.04475  1.0000
  C   C116      1.0  0.34910  0.42432  0.45525  1.0000
  C   C117      1.0  0.84910  0.07568  0.95525  1.0000
  C   C118      1.0  0.15090  0.07568  0.54475  1.0000
  C   C119      1.0  0.34910  0.57568  0.95525  1.0000
  C   C120      1.0  0.65090  0.57568  0.54475  1.0000
  C   C121      1.0  0.93878  0.95020  0.19934  1.0000
  C   C122      1.0  0.06122  0.95020  0.30066  1.0000
  C   C123      1.0  0.43878  0.45020  0.19934  1.0000
  C   C124      1.0  0.56122  0.45020  0.30066  1.0000
  C   C125      1.0  0.06122  0.04980  0.80066  1.0000
  C   C126      1.0  0.93878  0.04980  0.69934  1.0000
  C   C127      1.0  0.56122  0.54980  0.80066  1.0000
  C   C128      1.0  0.43878  0.54980  0.69934  1.0000
  H   H9        1.0  0.92880  0.92170  0.22470  1.0000
  H   H10       1.0  0.07120  0.92170  0.27530  1.0000
  H   H11       1.0  0.42880  0.42170  0.22470  1.0000
  H   H12       1.0  0.57120  0.42170  0.27530  1.0000
  H   H13       1.0  0.07120  0.07830  0.77530  1.0000
  H   H14       1.0  0.92880  0.07830  0.72470  1.0000
  H   H15       1.0  0.57120  0.57830  0.77530  1.0000
  H   H16       1.0  0.42880  0.57830  0.72470  1.0000
  N   N81       1.0  0.10350  0.99660  0.14846  1.0000
  N   N82       1.0  0.89650  0.99660  0.35154  1.0000
  N   N83       1.0  0.60350  0.49660  0.14846  1.0000
  N   N84       1.0  0.39650  0.49660  0.35154  1.0000
  N   N85       1.0  0.89650  0.00340  0.85154  1.0000
  N   N86       1.0  0.10350  0.00340  0.64846  1.0000
  N   N87       1.0  0.39650  0.50340  0.85154  1.0000
  N   N88       1.0  0.60350  0.50340  0.64846  1.0000
  C   C129      1.0  0.62358  0.71880  0.07257  1.0000
  C   C130      1.0  0.37642  0.71880  0.42743  1.0000
  C   C131      1.0  0.12358  0.21880  0.07257  1.0000
  C   C132      1.0  0.87642  0.21880  0.42743  1.0000
  C   C133      1.0  0.37642  0.28120  0.92743  1.0000
  C   C134      1.0  0.62358  0.28120  0.57257  1.0000
  C   C135      1.0  0.87642  0.78120  0.92743  1.0000
  C   C136      1.0  0.12358  0.78120  0.57257  1.0000
  H   H17       1.0  0.06560  0.75400  0.00690  1.0000
  H   H18       1.0  0.93440  0.75400  0.49310  1.0000
  H   H19       1.0  0.56560  0.25400  0.00690  1.0000
  H   H20       1.0  0.43440  0.25400  0.49310  1.0000
  H   H21       1.0  0.93440  0.24600  0.99310  1.0000
  H   H22       1.0  0.06560  0.24600  0.50690  1.0000
  H   H23       1.0  0.43440  0.74600  0.99310  1.0000
  H   H24       1.0  0.56560  0.74600  0.50690  1.0000
  H   H25       1.0  0.87300  0.12500  0.05240  1.0000
  H   H26       1.0  0.12700  0.12500  0.44760  1.0000
  H   H27       1.0  0.37300  0.62500  0.05240  1.0000
  H   H28       1.0  0.62700  0.62500  0.44760  1.0000
  H   H29       1.0  0.12700  0.87500  0.94760  1.0000
  H   H30       1.0  0.87300  0.87500  0.55240  1.0000
  H   H31       1.0  0.62700  0.37500  0.94760  1.0000
  H   H32       1.0  0.37300  0.37500  0.55240  1.0000
  H   H33       1.0  0.62760  0.93000  0.05160  1.0000
  H   H34       1.0  0.37240  0.93000  0.44840  1.0000
  H   H35       1.0  0.12760  0.43000  0.05160  1.0000
  H   H36       1.0  0.87240  0.43000  0.44840  1.0000
  H   H37       1.0  0.37240  0.07000  0.94840  1.0000
  H   H38       1.0  0.62760  0.07000  0.55160  1.0000
  H   H39       1.0  0.87240  0.57000  0.94840  1.0000
  H   H40       1.0  0.12760  0.57000  0.55160  1.0000
  H   H41       1.0  0.71320  0.75700  0.15500  1.0000
  H   H42       1.0  0.28680  0.75700  0.34500  1.0000
  H   H43       1.0  0.21320  0.25700  0.15500  1.0000
  H   H44       1.0  0.78680  0.25700  0.34500  1.0000
  H   H45       1.0  0.28680  0.24300  0.84500  1.0000
  H   H46       1.0  0.71320  0.24300  0.65500  1.0000
  H   H47       1.0  0.78680  0.74300  0.84500  1.0000
  H   H48       1.0  0.21320  0.74300  0.65500  1.0000
  H   H49       1.0  0.18000  0.96600  0.05890  1.0000
  H   H50       1.0  0.82000  0.96600  0.44110  1.0000
  H   H51       1.0  0.68000  0.46600  0.05890  1.0000
  H   H52       1.0  0.32000  0.46600  0.44110  1.0000
  H   H53       1.0  0.82000  0.03400  0.94110  1.0000
  H   H54       1.0  0.18000  0.03400  0.55890  1.0000
  H   H55       1.0  0.32000  0.53400  0.94110  1.0000
  H   H56       1.0  0.68000  0.53400  0.55890  1.0000
  H   H57       1.0  0.13500  0.97300  0.17520  1.0000
  H   H58       1.0  0.86500  0.97300  0.32480  1.0000
  H   H59       1.0  0.63500  0.47300  0.17520  1.0000
  H   H60       1.0  0.36500  0.47300  0.32480  1.0000
  H   H61       1.0  0.86500  0.02700  0.82480  1.0000
  H   H62       1.0  0.13500  0.02700  0.67520  1.0000
  H   H63       1.0  0.36500  0.52700  0.82480  1.0000
  H   H64       1.0  0.63500  0.52700  0.67520  1.0000
  H   H65       1.0  0.74200  0.13700  0.25840  1.0000
  H   H66       1.0  0.25800  0.13700  0.24160  1.0000
  H   H67       1.0  0.24200  0.63700  0.25840  1.0000
  H   H68       1.0  0.75800  0.63700  0.24160  1.0000
  H   H69       1.0  0.25800  0.86300  0.74160  1.0000
  H   H70       1.0  0.74200  0.86300  0.75840  1.0000
  H   H71       1.0  0.75800  0.36300  0.74160  1.0000
  H   H72       1.0  0.24200  0.36300  0.75840  1.0000
  H   H73       1.0  0.11600  0.02700  0.12590  1.0000
  H   H74       1.0  0.88400  0.02700  0.37410  1.0000
  H   H75       1.0  0.61600  0.52700  0.12590  1.0000
  H   H76       1.0  0.38400  0.52700  0.37410  1.0000
  H   H77       1.0  0.88400  0.97300  0.87410  1.0000
  H   H78       1.0  0.11600  0.97300  0.62590  1.0000
  H   H79       1.0  0.38400  0.47300  0.87410  1.0000
  H   H80       1.0  0.61600  0.47300  0.62590  1.0000
