data_image0
_chemical_formula_structural       Zn24N40O24C16H8O8C8N32C8H8O8N8C8H8O8C8H8C8H8C40H8C16H8C8N8H16C8H8C8
_chemical_formula_sum              "Zn24 N88 O48 C136 H80"
_cell_length_a       17.7098
_cell_length_b       13.6266
_cell_length_c       31.9688
_cell_angle_alpha    90
_cell_angle_beta     95.17
_cell_angle_gamma    90

_space_group_name_H-M_alt    "P 1"
_space_group_IT_number       1

loop_
  _space_group_symop_operation_xyz
  'x, y, z'

loop_
  _atom_site_type_symbol
  _atom_site_label
  _atom_site_symmetry_multiplicity
  _atom_site_fract_x
  _atom_site_fract_y
  _atom_site_fract_z
  _atom_site_occupancy
  Zn  Zn1       1.0  0.03727  0.91091  0.03895  1.0000
  Zn  Zn2       1.0  0.96273  0.91091  0.46105  1.0000
  Zn  Zn3       1.0  0.53727  0.41091  0.03895  1.0000
  Zn  Zn4       1.0  0.46273  0.41091  0.46105  1.0000
  Zn  Zn5       1.0  0.96273  0.08909  0.96105  1.0000
  Zn  Zn6       1.0  0.03727  0.08909  0.53896  1.0000
  Zn  Zn7       1.0  0.46273  0.58909  0.96105  1.0000
  Zn  Zn8       1.0  0.53727  0.58909  0.53896  1.0000
  Zn  Zn9       1.0  0.73760  0.90551  0.10553  1.0000
  Zn  Zn10      1.0  0.26240  0.90551  0.39447  1.0000
  Zn  Zn11      1.0  0.23760  0.40551  0.10553  1.0000
  Zn  Zn12      1.0  0.76240  0.40551  0.39447  1.0000
  Zn  Zn13      1.0  0.26240  0.09449  0.89447  1.0000
  Zn  Zn14      1.0  0.73760  0.09449  0.60553  1.0000
  Zn  Zn15      1.0  0.76240  0.59449  0.89447  1.0000
  Zn  Zn16      1.0  0.23760  0.59449  0.60553  1.0000
  Zn  Zn17      1.0  0.77313  0.03644  0.19178  1.0000
  Zn  Zn18      1.0  0.22687  0.03644  0.30822  1.0000
  Zn  Zn19      1.0  0.27313  0.53644  0.19178  1.0000
  Zn  Zn20      1.0  0.72687  0.53644  0.30822  1.0000
  Zn  Zn21      1.0  0.22687  0.96356  0.80823  1.0000
  Zn  Zn22      1.0  0.77313  0.96356  0.69178  1.0000
  Zn  Zn23      1.0  0.72687  0.46356  0.80823  1.0000
  Zn  Zn24      1.0  0.27313  0.46356  0.69178  1.0000
  N   N1        1.0  0.71524  0.09309  0.14009  1.0000
  N   N2        1.0  0.28476  0.09309  0.35991  1.0000
  N   N3        1.0  0.21524  0.59309  0.14009  1.0000
  N   N4        1.0  0.78476  0.59309  0.35991  1.0000
  N   N5        1.0  0.28476  0.90691  0.85991  1.0000
  N   N6        1.0  0.71524  0.90691  0.64009  1.0000
  N   N7        1.0  0.78476  0.40691  0.85991  1.0000
  N   N8        1.0  0.21524  0.40691  0.64009  1.0000
  N   N9        1.0  0.08688  0.03730  0.02673  1.0000
  N   N10       1.0  0.91312  0.03730  0.47327  1.0000
  N   N11       1.0  0.58688  0.53730  0.02673  1.0000
  N   N12       1.0  0.41312  0.53730  0.47327  1.0000
  N   N13       1.0  0.91312  0.96270  0.97327  1.0000
  N   N14       1.0  0.08688  0.96270  0.52673  1.0000
  N   N15       1.0  0.41312  0.46270  0.97327  1.0000
  N   N16       1.0  0.58688  0.46270  0.52673  1.0000
  N   N17       1.0  0.73540  0.89902  0.19744  1.0000
  N   N18       1.0  0.26460  0.89902  0.30256  1.0000
  N   N19       1.0  0.23540  0.39902  0.19744  1.0000
  N   N20       1.0  0.76460  0.39902  0.30256  1.0000
  N   N21       1.0  0.26460  0.10098  0.80256  1.0000
  N   N22       1.0  0.73540  0.10098  0.69744  1.0000
  N   N23       1.0  0.76460  0.60098  0.80256  1.0000
  N   N24       1.0  0.23540  0.60098  0.69744  1.0000
  N   N25       1.0  0.69094  0.03772  0.10596  1.0000
  N   N26       1.0  0.30906  0.03772  0.39404  1.0000
  N   N27       1.0  0.19094  0.53772  0.10596  1.0000
  N   N28       1.0  0.80906  0.53772  0.39404  1.0000
  N   N29       1.0  0.30906  0.96228  0.89404  1.0000
  N   N30       1.0  0.69094  0.96228  0.60596  1.0000
  N   N31       1.0  0.80906  0.46228  0.89404  1.0000
  N   N32       1.0  0.19094  0.46228  0.60596  1.0000
  N   N33       1.0  0.04279  0.11206  0.00972  1.0000
  N   N34       1.0  0.95721  0.11206  0.49028  1.0000
  N   N35       1.0  0.54279  0.61206  0.00972  1.0000
  N   N36       1.0  0.45721  0.61206  0.49028  1.0000
  N   N37       1.0  0.95721  0.88794  0.99028  1.0000
  N   N38       1.0  0.04279  0.88794  0.50972  1.0000
  N   N39       1.0  0.45721  0.38794  0.99028  1.0000
  N   N40       1.0  0.54279  0.38794  0.50972  1.0000
  O   O1        1.0  0.57583  0.27100  0.04093  1.0000
  O   O2        1.0  0.42417  0.27100  0.45907  1.0000
  O   O3        1.0  0.07583  0.77100  0.04093  1.0000
  O   O4        1.0  0.92417  0.77100  0.45907  1.0000
  O   O5        1.0  0.42417  0.72900  0.95907  1.0000
  O   O6        1.0  0.57583  0.72900  0.54093  1.0000
  O   O7        1.0  0.92417  0.22900  0.95907  1.0000
  O   O8        1.0  0.07583  0.22900  0.54093  1.0000
  O   O9        1.0  0.18635  0.33542  0.05838  1.0000
  O   O10       1.0  0.81365  0.33542  0.44162  1.0000
  O   O11       1.0  0.68635  0.83542  0.05838  1.0000
  O   O12       1.0  0.31365  0.83542  0.44162  1.0000
  O   O13       1.0  0.81365  0.66458  0.94162  1.0000
  O   O14       1.0  0.18635  0.66458  0.55838  1.0000
  O   O15       1.0  0.31365  0.16458  0.94162  1.0000
  O   O16       1.0  0.68635  0.16458  0.55838  1.0000
  O   O17       1.0  0.71236  0.56720  0.21913  1.0000
  O   O18       1.0  0.28764  0.56720  0.28087  1.0000
  O   O19       1.0  0.21236  0.06720  0.21913  1.0000
  O   O20       1.0  0.78764  0.06720  0.28087  1.0000
  O   O21       1.0  0.28764  0.43280  0.78087  1.0000
  O   O22       1.0  0.71236  0.43280  0.71913  1.0000
  O   O23       1.0  0.78764  0.93280  0.78087  1.0000
  O   O24       1.0  0.21236  0.93280  0.71913  1.0000
  C   C1        1.0  0.20660  0.24560  0.05921  1.0000
  C   C2        1.0  0.79340  0.24560  0.44079  1.0000
  C   C3        1.0  0.70660  0.74560  0.05921  1.0000
  C   C4        1.0  0.29340  0.74560  0.44079  1.0000
  C   C5        1.0  0.79340  0.75440  0.94079  1.0000
  C   C6        1.0  0.20660  0.75440  0.55921  1.0000
  C   C7        1.0  0.29340  0.25440  0.94079  1.0000
  C   C8        1.0  0.70660  0.25440  0.55921  1.0000
  C   C9        1.0  0.89438  0.90970  0.07841  1.0000
  C   C10       1.0  0.10562  0.90970  0.42159  1.0000
  C   C11       1.0  0.39438  0.40970  0.07841  1.0000
  C   C12       1.0  0.60562  0.40970  0.42159  1.0000
  C   C13       1.0  0.10562  0.09030  0.92159  1.0000
  C   C14       1.0  0.89438  0.09030  0.57841  1.0000
  C   C15       1.0  0.60562  0.59030  0.92159  1.0000
  C   C16       1.0  0.39438  0.59030  0.57841  1.0000
  H   H1        1.0  0.87540  0.88030  0.05340  1.0000
  H   H2        1.0  0.12460  0.88030  0.44660  1.0000
  H   H3        1.0  0.37540  0.38030  0.05340  1.0000
  H   H4        1.0  0.62460  0.38030  0.44660  1.0000
  H   H5        1.0  0.12460  0.11970  0.94660  1.0000
  H   H6        1.0  0.87540  0.11970  0.55340  1.0000
  H   H7        1.0  0.62460  0.61970  0.94660  1.0000
  H   H8        1.0  0.37540  0.61970  0.55340  1.0000
  O   O25       1.0  0.64166  0.36289  0.08662  1.0000
  O   O26       1.0  0.35834  0.36289  0.41338  1.0000
  O   O27       1.0  0.14166  0.86289  0.08662  1.0000
  O   O28       1.0  0.85834  0.86289  0.41338  1.0000
  O   O29       1.0  0.35834  0.63711  0.91338  1.0000
  O   O30       1.0  0.64166  0.63711  0.58662  1.0000
  O   O31       1.0  0.85834  0.13711  0.91338  1.0000
  O   O32       1.0  0.14166  0.13711  0.58662  1.0000
  C   C17       1.0  0.89869  0.97610  0.13883  1.0000
  C   C18       1.0  0.10131  0.97610  0.36117  1.0000
  C   C19       1.0  0.39869  0.47610  0.13883  1.0000
  C   C20       1.0  0.60131  0.47610  0.36117  1.0000
  C   C21       1.0  0.10131  0.02390  0.86117  1.0000
  C   C22       1.0  0.89869  0.02390  0.63883  1.0000
  C   C23       1.0  0.60131  0.52390  0.86117  1.0000
  C   C24       1.0  0.39869  0.52390  0.63883  1.0000
  N   N41       1.0  0.88061  0.01590  0.17552  1.0000
  N   N42       1.0  0.11939  0.01590  0.32448  1.0000
  N   N43       1.0  0.38061  0.51590  0.17552  1.0000
  N   N44       1.0  0.61939  0.51590  0.32448  1.0000
  N   N45       1.0  0.11939  0.98410  0.82448  1.0000
  N   N46       1.0  0.88061  0.98410  0.67552  1.0000
  N   N47       1.0  0.61939  0.48410  0.82448  1.0000
  N   N48       1.0  0.38061  0.48410  0.67552  1.0000
  N   N49       1.0  0.84940  0.93483  0.10814  1.0000
  N   N50       1.0  0.15060  0.93483  0.39186  1.0000
  N   N51       1.0  0.34940  0.43483  0.10814  1.0000
  N   N52       1.0  0.65060  0.43483  0.39186  1.0000
  N   N53       1.0  0.15060  0.06517  0.89186  1.0000
  N   N54       1.0  0.84940  0.06517  0.60814  1.0000
  N   N55       1.0  0.65060  0.56517  0.89186  1.0000
  N   N56       1.0  0.34940  0.56517  0.60814  1.0000
  N   N57       1.0  0.96790  0.92922  0.08664  1.0000
  N   N58       1.0  0.03210  0.92922  0.41336  1.0000
  N   N59       1.0  0.46790  0.42922  0.08664  1.0000
  N   N60       1.0  0.53210  0.42922  0.41336  1.0000
  N   N61       1.0  0.03210  0.07078  0.91336  1.0000
  N   N62       1.0  0.96790  0.07078  0.58664  1.0000
  N   N63       1.0  0.53210  0.57078  0.91336  1.0000
  N   N64       1.0  0.46790  0.57078  0.58664  1.0000
  N   N65       1.0  0.72188  0.84621  0.16115  1.0000
  N   N66       1.0  0.27812  0.84621  0.33885  1.0000
  N   N67       1.0  0.22188  0.34621  0.16115  1.0000
  N   N68       1.0  0.77812  0.34621  0.33885  1.0000
  N   N69       1.0  0.27812  0.15379  0.83885  1.0000
  N   N70       1.0  0.72188  0.15379  0.66115  1.0000
  N   N71       1.0  0.77812  0.65379  0.83885  1.0000
  N   N72       1.0  0.22188  0.65379  0.66115  1.0000
  C   C25       1.0  0.69570  0.18580  0.13191  1.0000
  C   C26       1.0  0.30430  0.18580  0.36809  1.0000
  C   C27       1.0  0.19570  0.68580  0.13191  1.0000
  C   C28       1.0  0.80430  0.68580  0.36809  1.0000
  C   C29       1.0  0.30430  0.81420  0.86809  1.0000
  C   C30       1.0  0.69570  0.81420  0.63191  1.0000
  C   C31       1.0  0.80430  0.31420  0.86809  1.0000
  C   C32       1.0  0.19570  0.31420  0.63191  1.0000
  H   H9        1.0  0.70690  0.23860  0.14980  1.0000
  H   H10       1.0  0.29310  0.23860  0.35020  1.0000
  H   H11       1.0  0.20690  0.73860  0.14980  1.0000
  H   H12       1.0  0.79310  0.73860  0.35020  1.0000
  H   H13       1.0  0.29310  0.76140  0.85020  1.0000
  H   H14       1.0  0.70690  0.76140  0.64980  1.0000
  H   H15       1.0  0.79310  0.26140  0.85020  1.0000
  H   H16       1.0  0.20690  0.26140  0.64980  1.0000
  O   O33       1.0  0.72720  0.65580  0.27667  1.0000
  O   O34       1.0  0.27280  0.65580  0.22333  1.0000
  O   O35       1.0  0.22720  0.15580  0.27667  1.0000
  O   O36       1.0  0.77280  0.15580  0.22333  1.0000
  O   O37       1.0  0.27280  0.34420  0.72333  1.0000
  O   O38       1.0  0.72720  0.34420  0.77667  1.0000
  O   O39       1.0  0.77280  0.84420  0.72333  1.0000
  O   O40       1.0  0.22720  0.84420  0.77667  1.0000
  N   N73       1.0  0.01265  0.04610  0.19133  1.0000
  N   N74       1.0  0.98735  0.04610  0.30867  1.0000
  N   N75       1.0  0.51265  0.54610  0.19133  1.0000
  N   N76       1.0  0.48735  0.54610  0.30867  1.0000
  N   N77       1.0  0.98735  0.95390  0.80867  1.0000
  N   N78       1.0  0.01265  0.95390  0.69133  1.0000
  N   N79       1.0  0.48735  0.45390  0.80867  1.0000
  N   N80       1.0  0.51265  0.45390  0.69133  1.0000
  C   C33       1.0  0.08037  0.19540  0.01806  1.0000
  C   C34       1.0  0.91963  0.19540  0.48194  1.0000
  C   C35       1.0  0.58037  0.69540  0.01806  1.0000
  C   C36       1.0  0.41963  0.69540  0.48194  1.0000
  C   C37       1.0  0.91963  0.80460  0.98194  1.0000
  C   C38       1.0  0.08037  0.80460  0.51806  1.0000
  C   C39       1.0  0.41963  0.30460  0.98194  1.0000
  C   C40       1.0  0.58037  0.30460  0.51806  1.0000
  H   H17       1.0  0.06290  0.25760  0.01010  1.0000
  H   H18       1.0  0.93710  0.25760  0.48990  1.0000
  H   H19       1.0  0.56290  0.75760  0.01010  1.0000
  H   H20       1.0  0.43710  0.75760  0.48990  1.0000
  H   H21       1.0  0.93710  0.74240  0.98990  1.0000
  H   H22       1.0  0.06290  0.74240  0.51010  1.0000
  H   H23       1.0  0.43710  0.24240  0.98990  1.0000
  H   H24       1.0  0.56290  0.24240  0.51010  1.0000
  O   O41       1.0  0.26795  0.21680  0.07661  1.0000
  O   O42       1.0  0.73205  0.21680  0.42339  1.0000
  O   O43       1.0  0.76795  0.71680  0.07661  1.0000
  O   O44       1.0  0.23205  0.71680  0.42339  1.0000
  O   O45       1.0  0.73205  0.78320  0.92339  1.0000
  O   O46       1.0  0.26795  0.78320  0.57661  1.0000
  O   O47       1.0  0.23205  0.28320  0.92339  1.0000
  O   O48       1.0  0.76795  0.28320  0.57661  1.0000
  C   C41       1.0  0.65460  0.09640  0.07783  1.0000
  C   C42       1.0  0.34540  0.09640  0.42217  1.0000
  C   C43       1.0  0.15460  0.59640  0.07783  1.0000
  C   C44       1.0  0.84540  0.59640  0.42217  1.0000
  C   C45       1.0  0.34540  0.90360  0.92217  1.0000
  C   C46       1.0  0.65460  0.90360  0.57783  1.0000
  C   C47       1.0  0.84540  0.40360  0.92217  1.0000
  C   C48       1.0  0.15460  0.40360  0.57783  1.0000
  H   H25       1.0  0.63150  0.07660  0.05190  1.0000
  H   H26       1.0  0.36850  0.07660  0.44810  1.0000
  H   H27       1.0  0.13150  0.57660  0.05190  1.0000
  H   H28       1.0  0.86850  0.57660  0.44810  1.0000
  H   H29       1.0  0.36850  0.92340  0.94810  1.0000
  H   H30       1.0  0.63150  0.92340  0.55190  1.0000
  H   H31       1.0  0.86850  0.42340  0.94810  1.0000
  H   H32       1.0  0.13150  0.42340  0.55190  1.0000
  C   C49       1.0  0.71200  0.75270  0.17122  1.0000
  C   C50       1.0  0.28800  0.75270  0.32878  1.0000
  C   C51       1.0  0.21200  0.25270  0.17122  1.0000
  C   C52       1.0  0.78800  0.25270  0.32878  1.0000
  C   C53       1.0  0.28800  0.24730  0.82878  1.0000
  C   C54       1.0  0.71200  0.24730  0.67122  1.0000
  C   C55       1.0  0.78800  0.74730  0.82878  1.0000
  C   C56       1.0  0.21200  0.74730  0.67122  1.0000
  H   H33       1.0  0.70070  0.70240  0.15200  1.0000
  H   H34       1.0  0.29930  0.70240  0.34800  1.0000
  H   H35       1.0  0.20070  0.20240  0.15200  1.0000
  H   H36       1.0  0.79930  0.20240  0.34800  1.0000
  H   H37       1.0  0.29930  0.29760  0.84800  1.0000
  H   H38       1.0  0.70070  0.29760  0.65200  1.0000
  H   H39       1.0  0.79930  0.79760  0.84800  1.0000
  H   H40       1.0  0.20070  0.79760  0.65200  1.0000
  C   C57       1.0  0.65650  0.19140  0.09283  1.0000
  C   C58       1.0  0.34350  0.19140  0.40717  1.0000
  C   C59       1.0  0.15650  0.69140  0.09283  1.0000
  C   C60       1.0  0.84350  0.69140  0.40717  1.0000
  C   C61       1.0  0.34350  0.80860  0.90717  1.0000
  C   C62       1.0  0.65650  0.80860  0.59283  1.0000
  C   C63       1.0  0.84350  0.30860  0.90717  1.0000
  C   C64       1.0  0.15650  0.30860  0.59283  1.0000
  C   C65       1.0  0.97141  0.97090  0.12624  1.0000
  C   C66       1.0  0.02859  0.97090  0.37376  1.0000
  C   C67       1.0  0.47141  0.47090  0.12624  1.0000
  C   C68       1.0  0.52859  0.47090  0.37376  1.0000
  C   C69       1.0  0.02859  0.02910  0.87376  1.0000
  C   C70       1.0  0.97141  0.02910  0.62624  1.0000
  C   C71       1.0  0.52859  0.52910  0.87376  1.0000
  C   C72       1.0  0.47141  0.52910  0.62624  1.0000
  C   C73       1.0  0.14989  0.17550  0.04055  1.0000
  C   C74       1.0  0.85011  0.17550  0.45945  1.0000
  C   C75       1.0  0.64989  0.67550  0.04055  1.0000
  C   C76       1.0  0.35011  0.67550  0.45945  1.0000
  C   C77       1.0  0.85011  0.82450  0.95945  1.0000
  C   C78       1.0  0.14989  0.82450  0.54055  1.0000
  C   C79       1.0  0.35011  0.32450  0.95945  1.0000
  C   C80       1.0  0.64989  0.32450  0.54055  1.0000
  C   C81       1.0  0.03174  0.00620  0.15459  1.0000
  C   C82       1.0  0.96826  0.00620  0.34541  1.0000
  C   C83       1.0  0.53174  0.50620  0.15459  1.0000
  C   C84       1.0  0.46826  0.50620  0.34541  1.0000
  C   C85       1.0  0.96826  0.99380  0.84541  1.0000
  C   C86       1.0  0.03174  0.99380  0.65459  1.0000
  C   C87       1.0  0.46826  0.49380  0.84541  1.0000
  C   C88       1.0  0.53174  0.49380  0.65459  1.0000
  C   C89       1.0  0.15062  0.07550  0.04498  1.0000
  C   C90       1.0  0.84938  0.07550  0.45502  1.0000
  C   C91       1.0  0.65062  0.57550  0.04498  1.0000
  C   C92       1.0  0.34938  0.57550  0.45502  1.0000
  C   C93       1.0  0.84938  0.92450  0.95502  1.0000
  C   C94       1.0  0.15062  0.92450  0.54498  1.0000
  C   C95       1.0  0.34938  0.42450  0.95502  1.0000
  C   C96       1.0  0.65062  0.42450  0.54498  1.0000
  H   H41       1.0  0.19000  0.03950  0.05880  1.0000
  H   H42       1.0  0.81000  0.03950  0.44120  1.0000
  H   H43       1.0  0.69000  0.53950  0.05880  1.0000
  H   H44       1.0  0.31000  0.53950  0.44120  1.0000
  H   H45       1.0  0.81000  0.96050  0.94120  1.0000
  H   H46       1.0  0.19000  0.96050  0.55880  1.0000
  H   H47       1.0  0.31000  0.46050  0.94120  1.0000
  H   H48       1.0  0.69000  0.46050  0.55880  1.0000
  C   C97       1.0  0.72090  0.74120  0.21421  1.0000
  C   C98       1.0  0.27910  0.74120  0.28579  1.0000
  C   C99       1.0  0.22090  0.24120  0.21421  1.0000
  C   C100      1.0  0.77910  0.24120  0.28579  1.0000
  C   C101      1.0  0.27910  0.25880  0.78579  1.0000
  C   C102      1.0  0.72090  0.25880  0.71421  1.0000
  C   C103      1.0  0.77910  0.75880  0.78579  1.0000
  C   C104      1.0  0.22090  0.75880  0.71421  1.0000
  C   C105      1.0  0.73570  0.83570  0.22913  1.0000
  C   C106      1.0  0.26430  0.83570  0.27087  1.0000
  C   C107      1.0  0.23570  0.33570  0.22913  1.0000
  C   C108      1.0  0.76430  0.33570  0.27087  1.0000
  C   C109      1.0  0.26430  0.16430  0.77087  1.0000
  C   C110      1.0  0.73570  0.16430  0.72913  1.0000
  C   C111      1.0  0.76430  0.66430  0.77087  1.0000
  C   C112      1.0  0.23570  0.66430  0.72913  1.0000
  H   H49       1.0  0.74450  0.85240  0.25740  1.0000
  H   H50       1.0  0.25550  0.85240  0.24260  1.0000
  H   H51       1.0  0.24450  0.35240  0.25740  1.0000
  H   H52       1.0  0.75550  0.35240  0.24260  1.0000
  H   H53       1.0  0.25550  0.14760  0.74260  1.0000
  H   H54       1.0  0.74450  0.14760  0.75740  1.0000
  H   H55       1.0  0.75550  0.64760  0.74260  1.0000
  H   H56       1.0  0.24450  0.64760  0.75740  1.0000
  C   C113      1.0  0.71990  0.64600  0.23741  1.0000
  C   C114      1.0  0.28010  0.64600  0.26259  1.0000
  C   C115      1.0  0.21990  0.14600  0.23741  1.0000
  C   C116      1.0  0.78010  0.14600  0.26259  1.0000
  C   C117      1.0  0.28010  0.35400  0.76259  1.0000
  C   C118      1.0  0.71990  0.35400  0.73741  1.0000
  C   C119      1.0  0.78010  0.85400  0.76259  1.0000
  C   C120      1.0  0.21990  0.85400  0.73741  1.0000
  N   N81       1.0  0.10412  0.00170  0.14892  1.0000
  N   N82       1.0  0.89588  0.00170  0.35108  1.0000
  N   N83       1.0  0.60412  0.50170  0.14892  1.0000
  N   N84       1.0  0.39588  0.50170  0.35108  1.0000
  N   N85       1.0  0.89588  0.99830  0.85108  1.0000
  N   N86       1.0  0.10412  0.99830  0.64892  1.0000
  N   N87       1.0  0.39588  0.49830  0.85108  1.0000
  N   N88       1.0  0.60412  0.49830  0.64892  1.0000
  H   H57       1.0  0.13730  0.02350  0.16800  1.0000
  H   H58       1.0  0.86270  0.02350  0.33200  1.0000
  H   H59       1.0  0.63730  0.52350  0.16800  1.0000
  H   H60       1.0  0.36270  0.52350  0.33200  1.0000
  H   H61       1.0  0.86270  0.97650  0.83200  1.0000
  H   H62       1.0  0.13730  0.97650  0.66800  1.0000
  H   H63       1.0  0.36270  0.47650  0.83200  1.0000
  H   H64       1.0  0.63730  0.47650  0.66800  1.0000
  H   H65       1.0  0.11840  0.97710  0.12610  1.0000
  H   H66       1.0  0.88160  0.97710  0.37390  1.0000
  H   H67       1.0  0.61840  0.47710  0.12610  1.0000
  H   H68       1.0  0.38160  0.47710  0.37390  1.0000
  H   H69       1.0  0.88160  0.02290  0.87390  1.0000
  H   H70       1.0  0.11840  0.02290  0.62610  1.0000
  H   H71       1.0  0.38160  0.52290  0.87390  1.0000
  H   H72       1.0  0.61840  0.52290  0.62610  1.0000
  C   C121      1.0  0.94080  0.04960  0.19914  1.0000
  C   C122      1.0  0.05920  0.04960  0.30086  1.0000
  C   C123      1.0  0.44080  0.54960  0.19914  1.0000
  C   C124      1.0  0.55920  0.54960  0.30086  1.0000
  C   C125      1.0  0.05920  0.95040  0.80086  1.0000
  C   C126      1.0  0.94080  0.95040  0.69914  1.0000
  C   C127      1.0  0.55920  0.45040  0.80086  1.0000
  C   C128      1.0  0.44080  0.45040  0.69914  1.0000
  H   H73       1.0  0.93100  0.07930  0.22430  1.0000
  H   H74       1.0  0.06900  0.07930  0.27570  1.0000
  H   H75       1.0  0.43100  0.57930  0.22430  1.0000
  H   H76       1.0  0.56900  0.57930  0.27570  1.0000
  H   H77       1.0  0.06900  0.92070  0.77570  1.0000
  H   H78       1.0  0.93100  0.92070  0.72430  1.0000
  H   H79       1.0  0.56900  0.42070  0.77570  1.0000
  H   H80       1.0  0.43100  0.42070  0.72430  1.0000
  C   C129      1.0  0.62370  0.28090  0.07213  1.0000
  C   C130      1.0  0.37630  0.28090  0.42787  1.0000
  C   C131      1.0  0.12370  0.78090  0.07213  1.0000
  C   C132      1.0  0.87630  0.78090  0.42787  1.0000
  C   C133      1.0  0.37630  0.71910  0.92787  1.0000
  C   C134      1.0  0.62370  0.71910  0.57213  1.0000
  C   C135      1.0  0.87630  0.21910  0.92787  1.0000
  C   C136      1.0  0.12370  0.21910  0.57213  1.0000
