data_image0
_chemical_formula_structural       In12O96C96H48C48
_chemical_formula_sum              "In12 O96 C144 H48"
_cell_length_a       20.398
_cell_length_b       20.398
_cell_length_c       20.398
_cell_angle_alpha    90
_cell_angle_beta     90
_cell_angle_gamma    90

_space_group_name_H-M_alt    "P 1"
_space_group_IT_number       1

loop_
  _space_group_symop_operation_xyz
  'x, y, z'

loop_
  _atom_site_type_symbol
  _atom_site_label
  _atom_site_symmetry_multiplicity
  _atom_site_fract_x
  _atom_site_fract_y
  _atom_site_fract_z
  _atom_site_occupancy
  In  In1       1.0  0.50000  0.25000  0.12500  1.0000
  In  In2       1.0  0.00000  0.75000  0.62500  1.0000
  In  In3       1.0  0.50000  0.75000  0.37500  1.0000
  In  In4       1.0  0.00000  0.25000  0.87500  1.0000
  In  In5       1.0  0.12500  0.50000  0.25000  1.0000
  In  In6       1.0  0.62500  0.00000  0.75000  1.0000
  In  In7       1.0  0.37500  0.50000  0.75000  1.0000
  In  In8       1.0  0.87500  0.00000  0.25000  1.0000
  In  In9       1.0  0.25000  0.12500  0.50000  1.0000
  In  In10      1.0  0.75000  0.62500  0.00000  1.0000
  In  In11      1.0  0.75000  0.37500  0.50000  1.0000
  In  In12      1.0  0.25000  0.87500  0.00000  1.0000
  O   O1        1.0  0.58210  0.19590  0.16550  1.0000
  O   O2        1.0  0.91790  0.80410  0.66550  1.0000
  O   O3        1.0  0.41790  0.69590  0.33450  1.0000
  O   O4        1.0  0.08210  0.30410  0.83450  1.0000
  O   O5        1.0  0.16550  0.58210  0.19590  1.0000
  O   O6        1.0  0.66550  0.91790  0.80410  1.0000
  O   O7        1.0  0.33450  0.41790  0.69590  1.0000
  O   O8        1.0  0.83450  0.08210  0.30410  1.0000
  O   O9        1.0  0.19590  0.16550  0.58210  1.0000
  O   O10       1.0  0.80410  0.66550  0.91790  1.0000
  O   O11       1.0  0.69590  0.33450  0.41790  1.0000
  O   O12       1.0  0.30410  0.83450  0.08210  1.0000
  O   O13       1.0  0.44590  0.83210  0.41550  1.0000
  O   O14       1.0  0.05410  0.16790  0.91550  1.0000
  O   O15       1.0  0.94590  0.66790  0.58450  1.0000
  O   O16       1.0  0.55410  0.33210  0.08450  1.0000
  O   O17       1.0  0.83210  0.41550  0.44590  1.0000
  O   O18       1.0  0.16790  0.91550  0.05410  1.0000
  O   O19       1.0  0.66790  0.58450  0.94590  1.0000
  O   O20       1.0  0.33210  0.08450  0.55410  1.0000
  O   O21       1.0  0.41550  0.44590  0.83210  1.0000
  O   O22       1.0  0.91550  0.05410  0.16790  1.0000
  O   O23       1.0  0.58450  0.94590  0.66790  1.0000
  O   O24       1.0  0.08450  0.55410  0.33210  1.0000
  O   O25       1.0  0.08210  0.69590  0.66550  1.0000
  O   O26       1.0  0.41790  0.30410  0.16550  1.0000
  O   O27       1.0  0.91790  0.19590  0.83450  1.0000
  O   O28       1.0  0.58210  0.80410  0.33450  1.0000
  O   O29       1.0  0.66550  0.08210  0.69590  1.0000
  O   O30       1.0  0.16550  0.41790  0.30410  1.0000
  O   O31       1.0  0.83450  0.91790  0.19590  1.0000
  O   O32       1.0  0.33450  0.58210  0.80410  1.0000
  O   O33       1.0  0.69590  0.66550  0.08210  1.0000
  O   O34       1.0  0.30410  0.16550  0.41790  1.0000
  O   O35       1.0  0.19590  0.83450  0.91790  1.0000
  O   O36       1.0  0.80410  0.33450  0.58210  1.0000
  O   O37       1.0  0.94590  0.33210  0.91550  1.0000
  O   O38       1.0  0.55410  0.66790  0.41550  1.0000
  O   O39       1.0  0.44590  0.16790  0.08450  1.0000
  O   O40       1.0  0.05410  0.83210  0.58450  1.0000
  O   O41       1.0  0.33210  0.91550  0.94590  1.0000
  O   O42       1.0  0.66790  0.41550  0.55410  1.0000
  O   O43       1.0  0.16790  0.08450  0.44590  1.0000
  O   O44       1.0  0.83210  0.58450  0.05410  1.0000
  O   O45       1.0  0.91550  0.94590  0.33210  1.0000
  O   O46       1.0  0.41550  0.55410  0.66790  1.0000
  O   O47       1.0  0.08450  0.44590  0.16790  1.0000
  O   O48       1.0  0.58450  0.05410  0.83210  1.0000
  O   O49       1.0  0.56340  0.28590  0.21880  1.0000
  O   O50       1.0  0.93660  0.71410  0.71880  1.0000
  O   O51       1.0  0.43660  0.78590  0.28120  1.0000
  O   O52       1.0  0.06340  0.21410  0.78120  1.0000
  O   O53       1.0  0.21880  0.56340  0.28590  1.0000
  O   O54       1.0  0.71880  0.93660  0.71410  1.0000
  O   O55       1.0  0.28120  0.43660  0.78590  1.0000
  O   O56       1.0  0.78120  0.06340  0.21410  1.0000
  O   O57       1.0  0.28590  0.21880  0.56340  1.0000
  O   O58       1.0  0.71410  0.71880  0.93660  1.0000
  O   O59       1.0  0.78590  0.28120  0.43660  1.0000
  O   O60       1.0  0.21410  0.78120  0.06340  1.0000
  O   O61       1.0  0.53590  0.81340  0.46880  1.0000
  O   O62       1.0  0.96410  0.18660  0.96880  1.0000
  O   O63       1.0  0.03590  0.68660  0.53120  1.0000
  O   O64       1.0  0.46410  0.31340  0.03120  1.0000
  O   O65       1.0  0.81340  0.46880  0.53590  1.0000
  O   O66       1.0  0.18660  0.96880  0.96410  1.0000
  O   O67       1.0  0.68660  0.53120  0.03590  1.0000
  O   O68       1.0  0.31340  0.03120  0.46410  1.0000
  O   O69       1.0  0.46880  0.53590  0.81340  1.0000
  O   O70       1.0  0.96880  0.96410  0.18660  1.0000
  O   O71       1.0  0.53120  0.03590  0.68660  1.0000
  O   O72       1.0  0.03120  0.46410  0.31340  1.0000
  O   O73       1.0  0.06340  0.78590  0.71880  1.0000
  O   O74       1.0  0.43660  0.21410  0.21880  1.0000
  O   O75       1.0  0.93660  0.28590  0.78120  1.0000
  O   O76       1.0  0.56340  0.71410  0.28120  1.0000
  O   O77       1.0  0.71880  0.06340  0.78590  1.0000
  O   O78       1.0  0.21880  0.43660  0.21410  1.0000
  O   O79       1.0  0.78120  0.93660  0.28590  1.0000
  O   O80       1.0  0.28120  0.56340  0.71410  1.0000
  O   O81       1.0  0.78590  0.71880  0.06340  1.0000
  O   O82       1.0  0.21410  0.21880  0.43660  1.0000
  O   O83       1.0  0.28590  0.78120  0.93660  1.0000
  O   O84       1.0  0.71410  0.28120  0.56340  1.0000
  O   O85       1.0  0.03590  0.31340  0.96880  1.0000
  O   O86       1.0  0.46410  0.68660  0.46880  1.0000
  O   O87       1.0  0.53590  0.18660  0.03120  1.0000
  O   O88       1.0  0.96410  0.81340  0.53120  1.0000
  O   O89       1.0  0.31340  0.96880  0.03590  1.0000
  O   O90       1.0  0.68660  0.46880  0.46410  1.0000
  O   O91       1.0  0.18660  0.03120  0.53590  1.0000
  O   O92       1.0  0.81340  0.53120  0.96410  1.0000
  O   O93       1.0  0.96880  0.03590  0.31340  1.0000
  O   O94       1.0  0.46880  0.46410  0.68660  1.0000
  O   O95       1.0  0.03120  0.53590  0.18660  1.0000
  O   O96       1.0  0.53120  0.96410  0.81340  1.0000
  C   C1        1.0  0.65310  0.22040  0.25300  1.0000
  C   C2        1.0  0.84690  0.77960  0.75300  1.0000
  C   C3        1.0  0.34690  0.72040  0.24700  1.0000
  C   C4        1.0  0.15310  0.27960  0.74700  1.0000
  C   C5        1.0  0.25300  0.65310  0.22040  1.0000
  C   C6        1.0  0.75300  0.84690  0.77960  1.0000
  C   C7        1.0  0.24700  0.34690  0.72040  1.0000
  C   C8        1.0  0.74700  0.15310  0.27960  1.0000
  C   C9        1.0  0.22040  0.25300  0.65310  1.0000
  C   C10       1.0  0.77960  0.75300  0.84690  1.0000
  C   C11       1.0  0.72040  0.24700  0.34690  1.0000
  C   C12       1.0  0.27960  0.74700  0.15310  1.0000
  C   C13       1.0  0.47040  0.90310  0.50300  1.0000
  C   C14       1.0  0.02960  0.09690  0.00300  1.0000
  C   C15       1.0  0.97040  0.59690  0.49700  1.0000
  C   C16       1.0  0.52960  0.40310  0.99700  1.0000
  C   C17       1.0  0.90310  0.50300  0.47040  1.0000
  C   C18       1.0  0.09690  0.00300  0.02960  1.0000
  C   C19       1.0  0.59690  0.49700  0.97040  1.0000
  C   C20       1.0  0.40310  0.99700  0.52960  1.0000
  C   C21       1.0  0.50300  0.47040  0.90310  1.0000
  C   C22       1.0  0.00300  0.02960  0.09690  1.0000
  C   C23       1.0  0.49700  0.97040  0.59690  1.0000
  C   C24       1.0  0.99700  0.52960  0.40310  1.0000
  C   C25       1.0  0.15310  0.72040  0.75300  1.0000
  C   C26       1.0  0.34690  0.27960  0.25300  1.0000
  C   C27       1.0  0.84690  0.22040  0.74700  1.0000
  C   C28       1.0  0.65310  0.77960  0.24700  1.0000
  C   C29       1.0  0.75300  0.15310  0.72040  1.0000
  C   C30       1.0  0.25300  0.34690  0.27960  1.0000
  C   C31       1.0  0.74700  0.84690  0.22040  1.0000
  C   C32       1.0  0.24700  0.65310  0.77960  1.0000
  C   C33       1.0  0.72040  0.75300  0.15310  1.0000
  C   C34       1.0  0.27960  0.25300  0.34690  1.0000
  C   C35       1.0  0.22040  0.74700  0.84690  1.0000
  C   C36       1.0  0.77960  0.24700  0.65310  1.0000
  C   C37       1.0  0.97040  0.40310  0.00300  1.0000
  C   C38       1.0  0.52960  0.59690  0.50300  1.0000
  C   C39       1.0  0.47040  0.09690  0.99700  1.0000
  C   C40       1.0  0.02960  0.90310  0.49700  1.0000
  C   C41       1.0  0.40310  0.00300  0.97040  1.0000
  C   C42       1.0  0.59690  0.50300  0.52960  1.0000
  C   C43       1.0  0.09690  0.99700  0.47040  1.0000
  C   C44       1.0  0.90310  0.49700  0.02960  1.0000
  C   C45       1.0  0.00300  0.97040  0.40310  1.0000
  C   C46       1.0  0.50300  0.52960  0.59690  1.0000
  C   C47       1.0  0.99700  0.47040  0.09690  1.0000
  C   C48       1.0  0.49700  0.02960  0.90310  1.0000
  C   C49       1.0  0.69340  0.16720  0.23950  1.0000
  C   C50       1.0  0.80660  0.83280  0.73950  1.0000
  C   C51       1.0  0.30660  0.66720  0.26050  1.0000
  C   C52       1.0  0.19340  0.33280  0.76050  1.0000
  C   C53       1.0  0.23950  0.69340  0.16720  1.0000
  C   C54       1.0  0.73950  0.80660  0.83280  1.0000
  C   C55       1.0  0.26050  0.30660  0.66720  1.0000
  C   C56       1.0  0.76050  0.19340  0.33280  1.0000
  C   C57       1.0  0.16720  0.23950  0.69340  1.0000
  C   C58       1.0  0.83280  0.73950  0.80660  1.0000
  C   C59       1.0  0.66720  0.26050  0.30660  1.0000
  C   C60       1.0  0.33280  0.76050  0.19340  1.0000
  C   C61       1.0  0.41720  0.94340  0.48950  1.0000
  C   C62       1.0  0.08280  0.05660  0.98950  1.0000
  C   C63       1.0  0.91720  0.55660  0.51050  1.0000
  C   C64       1.0  0.58280  0.44340  0.01050  1.0000
  C   C65       1.0  0.94340  0.48950  0.41720  1.0000
  C   C66       1.0  0.05660  0.98950  0.08280  1.0000
  C   C67       1.0  0.55660  0.51050  0.91720  1.0000
  C   C68       1.0  0.44340  0.01050  0.58280  1.0000
  C   C69       1.0  0.48950  0.41720  0.94340  1.0000
  C   C70       1.0  0.98950  0.08280  0.05660  1.0000
  C   C71       1.0  0.51050  0.91720  0.55660  1.0000
  C   C72       1.0  0.01050  0.58280  0.44340  1.0000
  C   C73       1.0  0.19340  0.66720  0.73950  1.0000
  C   C74       1.0  0.30660  0.33280  0.23950  1.0000
  C   C75       1.0  0.80660  0.16720  0.76050  1.0000
  C   C76       1.0  0.69340  0.83280  0.26050  1.0000
  C   C77       1.0  0.73950  0.19340  0.66720  1.0000
  C   C78       1.0  0.23950  0.30660  0.33280  1.0000
  C   C79       1.0  0.76050  0.80660  0.16720  1.0000
  C   C80       1.0  0.26050  0.69340  0.83280  1.0000
  C   C81       1.0  0.66720  0.73950  0.19340  1.0000
  C   C82       1.0  0.33280  0.23950  0.30660  1.0000
  C   C83       1.0  0.16720  0.76050  0.80660  1.0000
  C   C84       1.0  0.83280  0.26050  0.69340  1.0000
  C   C85       1.0  0.91720  0.44340  0.98950  1.0000
  C   C86       1.0  0.58280  0.55660  0.48950  1.0000
  C   C87       1.0  0.41720  0.05660  0.01050  1.0000
  C   C88       1.0  0.08280  0.94340  0.51050  1.0000
  C   C89       1.0  0.44340  0.98950  0.91720  1.0000
  C   C90       1.0  0.55660  0.48950  0.58280  1.0000
  C   C91       1.0  0.05660  0.01050  0.41720  1.0000
  C   C92       1.0  0.94340  0.51050  0.08280  1.0000
  C   C93       1.0  0.98950  0.91720  0.44340  1.0000
  C   C94       1.0  0.48950  0.58280  0.55660  1.0000
  C   C95       1.0  0.01050  0.41720  0.05660  1.0000
  C   C96       1.0  0.51050  0.08280  0.94340  1.0000
  H   H1        1.0  0.68450  0.14060  0.20350  1.0000
  H   H2        1.0  0.81550  0.85940  0.70350  1.0000
  H   H3        1.0  0.31550  0.64060  0.29650  1.0000
  H   H4        1.0  0.18450  0.35940  0.79650  1.0000
  H   H5        1.0  0.20350  0.68450  0.14060  1.0000
  H   H6        1.0  0.70350  0.81550  0.85940  1.0000
  H   H7        1.0  0.29650  0.31550  0.64060  1.0000
  H   H8        1.0  0.79650  0.18450  0.35940  1.0000
  H   H9        1.0  0.14060  0.20350  0.68450  1.0000
  H   H10       1.0  0.85940  0.70350  0.81550  1.0000
  H   H11       1.0  0.64060  0.29650  0.31550  1.0000
  H   H12       1.0  0.35940  0.79650  0.18450  1.0000
  H   H13       1.0  0.39060  0.93450  0.45350  1.0000
  H   H14       1.0  0.10940  0.06550  0.95350  1.0000
  H   H15       1.0  0.89060  0.56550  0.54650  1.0000
  H   H16       1.0  0.60940  0.43450  0.04650  1.0000
  H   H17       1.0  0.93450  0.45350  0.39060  1.0000
  H   H18       1.0  0.06550  0.95350  0.10940  1.0000
  H   H19       1.0  0.56550  0.54650  0.89060  1.0000
  H   H20       1.0  0.43450  0.04650  0.60940  1.0000
  H   H21       1.0  0.45350  0.39060  0.93450  1.0000
  H   H22       1.0  0.95350  0.10940  0.06550  1.0000
  H   H23       1.0  0.54650  0.89060  0.56550  1.0000
  H   H24       1.0  0.04650  0.60940  0.43450  1.0000
  H   H25       1.0  0.18450  0.64060  0.70350  1.0000
  H   H26       1.0  0.31550  0.35940  0.20350  1.0000
  H   H27       1.0  0.81550  0.14060  0.79650  1.0000
  H   H28       1.0  0.68450  0.85940  0.29650  1.0000
  H   H29       1.0  0.70350  0.18450  0.64060  1.0000
  H   H30       1.0  0.20350  0.31550  0.35940  1.0000
  H   H31       1.0  0.79650  0.81550  0.14060  1.0000
  H   H32       1.0  0.29650  0.68450  0.85940  1.0000
  H   H33       1.0  0.64060  0.70350  0.18450  1.0000
  H   H34       1.0  0.35940  0.20350  0.31550  1.0000
  H   H35       1.0  0.14060  0.79650  0.81550  1.0000
  H   H36       1.0  0.85940  0.29650  0.68450  1.0000
  H   H37       1.0  0.89060  0.43450  0.95350  1.0000
  H   H38       1.0  0.60940  0.56550  0.45350  1.0000
  H   H39       1.0  0.39060  0.06550  0.04650  1.0000
  H   H40       1.0  0.10940  0.93450  0.54650  1.0000
  H   H41       1.0  0.43450  0.95350  0.89060  1.0000
  H   H42       1.0  0.56550  0.45350  0.60940  1.0000
  H   H43       1.0  0.06550  0.04650  0.39060  1.0000
  H   H44       1.0  0.93450  0.54650  0.10940  1.0000
  H   H45       1.0  0.95350  0.89060  0.43450  1.0000
  H   H46       1.0  0.45350  0.60940  0.56550  1.0000
  H   H47       1.0  0.04650  0.39060  0.06550  1.0000
  H   H48       1.0  0.54650  0.10940  0.93450  1.0000
  C   C97       1.0  0.59650  0.23560  0.21060  1.0000
  C   C98       1.0  0.90350  0.76440  0.71060  1.0000
  C   C99       1.0  0.40350  0.73560  0.28940  1.0000
  C   C100      1.0  0.09650  0.26440  0.78940  1.0000
  C   C101      1.0  0.21060  0.59650  0.23560  1.0000
  C   C102      1.0  0.71060  0.90350  0.76440  1.0000
  C   C103      1.0  0.28940  0.40350  0.73560  1.0000
  C   C104      1.0  0.78940  0.09650  0.26440  1.0000
  C   C105      1.0  0.23560  0.21060  0.59650  1.0000
  C   C106      1.0  0.76440  0.71060  0.90350  1.0000
  C   C107      1.0  0.73560  0.28940  0.40350  1.0000
  C   C108      1.0  0.26440  0.78940  0.09650  1.0000
  C   C109      1.0  0.48560  0.84650  0.46060  1.0000
  C   C110      1.0  0.01440  0.15350  0.96060  1.0000
  C   C111      1.0  0.98560  0.65350  0.53940  1.0000
  C   C112      1.0  0.51440  0.34650  0.03940  1.0000
  C   C113      1.0  0.84650  0.46060  0.48560  1.0000
  C   C114      1.0  0.15350  0.96060  0.01440  1.0000
  C   C115      1.0  0.65350  0.53940  0.98560  1.0000
  C   C116      1.0  0.34650  0.03940  0.51440  1.0000
  C   C117      1.0  0.46060  0.48560  0.84650  1.0000
  C   C118      1.0  0.96060  0.01440  0.15350  1.0000
  C   C119      1.0  0.53940  0.98560  0.65350  1.0000
  C   C120      1.0  0.03940  0.51440  0.34650  1.0000
  C   C121      1.0  0.09650  0.73560  0.71060  1.0000
  C   C122      1.0  0.40350  0.26440  0.21060  1.0000
  C   C123      1.0  0.90350  0.23560  0.78940  1.0000
  C   C124      1.0  0.59650  0.76440  0.28940  1.0000
  C   C125      1.0  0.71060  0.09650  0.73560  1.0000
  C   C126      1.0  0.21060  0.40350  0.26440  1.0000
  C   C127      1.0  0.78940  0.90350  0.23560  1.0000
  C   C128      1.0  0.28940  0.59650  0.76440  1.0000
  C   C129      1.0  0.73560  0.71060  0.09650  1.0000
  C   C130      1.0  0.26440  0.21060  0.40350  1.0000
  C   C131      1.0  0.23560  0.78940  0.90350  1.0000
  C   C132      1.0  0.76440  0.28940  0.59650  1.0000
  C   C133      1.0  0.98560  0.34650  0.96060  1.0000
  C   C134      1.0  0.51440  0.65350  0.46060  1.0000
  C   C135      1.0  0.48560  0.15350  0.03940  1.0000
  C   C136      1.0  0.01440  0.84650  0.53940  1.0000
  C   C137      1.0  0.34650  0.96060  0.98560  1.0000
  C   C138      1.0  0.65350  0.46060  0.51440  1.0000
  C   C139      1.0  0.15350  0.03940  0.48560  1.0000
  C   C140      1.0  0.84650  0.53940  0.01440  1.0000
  C   C141      1.0  0.96060  0.98560  0.34650  1.0000
  C   C142      1.0  0.46060  0.51440  0.65350  1.0000
  C   C143      1.0  0.03940  0.48560  0.15350  1.0000
  C   C144      1.0  0.53940  0.01440  0.84650  1.0000
