data_image0
_chemical_formula_structural       In12O96C96H48C48
_chemical_formula_sum              "In12 O96 C144 H48"
_cell_length_a       20.431
_cell_length_b       20.431
_cell_length_c       20.431
_cell_angle_alpha    90
_cell_angle_beta     90
_cell_angle_gamma    90

_space_group_name_H-M_alt    "P 1"
_space_group_IT_number       1

loop_
  _space_group_symop_operation_xyz
  'x, y, z'

loop_
  _atom_site_type_symbol
  _atom_site_label
  _atom_site_symmetry_multiplicity
  _atom_site_fract_x
  _atom_site_fract_y
  _atom_site_fract_z
  _atom_site_occupancy
  In  In1       1.0  0.00000  0.75000  0.12500  1.0000
  In  In2       1.0  0.50000  0.25000  0.62500  1.0000
  In  In3       1.0  0.00000  0.25000  0.37500  1.0000
  In  In4       1.0  0.50000  0.75000  0.87500  1.0000
  In  In5       1.0  0.12500  0.00000  0.75000  1.0000
  In  In6       1.0  0.62500  0.50000  0.25000  1.0000
  In  In7       1.0  0.37500  0.00000  0.25000  1.0000
  In  In8       1.0  0.87500  0.50000  0.75000  1.0000
  In  In9       1.0  0.75000  0.12500  0.00000  1.0000
  In  In10      1.0  0.25000  0.62500  0.50000  1.0000
  In  In11      1.0  0.25000  0.37500  0.00000  1.0000
  In  In12      1.0  0.75000  0.87500  0.50000  1.0000
  O   O1        1.0  0.08290  0.80320  0.16550  1.0000
  O   O2        1.0  0.41710  0.19680  0.66550  1.0000
  O   O3        1.0  0.91710  0.30320  0.33450  1.0000
  O   O4        1.0  0.58290  0.69680  0.83450  1.0000
  O   O5        1.0  0.16550  0.08290  0.80320  1.0000
  O   O6        1.0  0.66550  0.41710  0.19680  1.0000
  O   O7        1.0  0.33450  0.91710  0.30320  1.0000
  O   O8        1.0  0.83450  0.58290  0.69680  1.0000
  O   O9        1.0  0.80320  0.16550  0.08290  1.0000
  O   O10       1.0  0.19680  0.66550  0.41710  1.0000
  O   O11       1.0  0.30320  0.33450  0.91710  1.0000
  O   O12       1.0  0.69680  0.83450  0.58290  1.0000
  O   O13       1.0  0.05320  0.33290  0.41550  1.0000
  O   O14       1.0  0.44680  0.66710  0.91550  1.0000
  O   O15       1.0  0.55320  0.16710  0.58450  1.0000
  O   O16       1.0  0.94680  0.83290  0.08450  1.0000
  O   O17       1.0  0.33290  0.41550  0.05320  1.0000
  O   O18       1.0  0.66710  0.91550  0.44680  1.0000
  O   O19       1.0  0.16710  0.58450  0.55320  1.0000
  O   O20       1.0  0.83290  0.08450  0.94680  1.0000
  O   O21       1.0  0.41550  0.05320  0.33290  1.0000
  O   O22       1.0  0.91550  0.44680  0.66710  1.0000
  O   O23       1.0  0.58450  0.55320  0.16710  1.0000
  O   O24       1.0  0.08450  0.94680  0.83290  1.0000
  O   O25       1.0  0.58290  0.30320  0.66550  1.0000
  O   O26       1.0  0.91710  0.69680  0.16550  1.0000
  O   O27       1.0  0.41710  0.80320  0.83450  1.0000
  O   O28       1.0  0.08290  0.19680  0.33450  1.0000
  O   O29       1.0  0.66550  0.58290  0.30320  1.0000
  O   O30       1.0  0.16550  0.91710  0.69680  1.0000
  O   O31       1.0  0.83450  0.41710  0.80320  1.0000
  O   O32       1.0  0.33450  0.08290  0.19680  1.0000
  O   O33       1.0  0.30320  0.66550  0.58290  1.0000
  O   O34       1.0  0.69680  0.16550  0.91710  1.0000
  O   O35       1.0  0.80320  0.83450  0.41710  1.0000
  O   O36       1.0  0.19680  0.33450  0.08290  1.0000
  O   O37       1.0  0.55320  0.83290  0.91550  1.0000
  O   O38       1.0  0.94680  0.16710  0.41550  1.0000
  O   O39       1.0  0.05320  0.66710  0.08450  1.0000
  O   O40       1.0  0.44680  0.33290  0.58450  1.0000
  O   O41       1.0  0.83290  0.91550  0.55320  1.0000
  O   O42       1.0  0.16710  0.41550  0.94680  1.0000
  O   O43       1.0  0.66710  0.08450  0.05320  1.0000
  O   O44       1.0  0.33290  0.58450  0.44680  1.0000
  O   O45       1.0  0.91550  0.55320  0.83290  1.0000
  O   O46       1.0  0.41550  0.94680  0.16710  1.0000
  O   O47       1.0  0.08450  0.05320  0.66710  1.0000
  O   O48       1.0  0.58450  0.44680  0.33290  1.0000
  O   O49       1.0  0.06440  0.71390  0.21830  1.0000
  O   O50       1.0  0.43560  0.28610  0.71830  1.0000
  O   O51       1.0  0.93560  0.21390  0.28170  1.0000
  O   O52       1.0  0.56440  0.78610  0.78170  1.0000
  O   O53       1.0  0.21830  0.06440  0.71390  1.0000
  O   O54       1.0  0.71830  0.43560  0.28610  1.0000
  O   O55       1.0  0.28170  0.93560  0.21390  1.0000
  O   O56       1.0  0.78170  0.56440  0.78610  1.0000
  O   O57       1.0  0.71390  0.21830  0.06440  1.0000
  O   O58       1.0  0.28610  0.71830  0.43560  1.0000
  O   O59       1.0  0.21390  0.28170  0.93560  1.0000
  O   O60       1.0  0.78610  0.78170  0.56440  1.0000
  O   O61       1.0  0.96390  0.31440  0.46830  1.0000
  O   O62       1.0  0.53610  0.68560  0.96830  1.0000
  O   O63       1.0  0.46390  0.18560  0.53170  1.0000
  O   O64       1.0  0.03610  0.81440  0.03170  1.0000
  O   O65       1.0  0.31440  0.46830  0.96390  1.0000
  O   O66       1.0  0.68560  0.96830  0.53610  1.0000
  O   O67       1.0  0.18560  0.53170  0.46390  1.0000
  O   O68       1.0  0.81440  0.03170  0.03610  1.0000
  O   O69       1.0  0.46830  0.96390  0.31440  1.0000
  O   O70       1.0  0.96830  0.53610  0.68560  1.0000
  O   O71       1.0  0.53170  0.46390  0.18560  1.0000
  O   O72       1.0  0.03170  0.03610  0.81440  1.0000
  O   O73       1.0  0.56440  0.21390  0.71830  1.0000
  O   O74       1.0  0.93560  0.78610  0.21830  1.0000
  O   O75       1.0  0.43560  0.71390  0.78170  1.0000
  O   O76       1.0  0.06440  0.28610  0.28170  1.0000
  O   O77       1.0  0.71830  0.56440  0.21390  1.0000
  O   O78       1.0  0.21830  0.93560  0.78610  1.0000
  O   O79       1.0  0.78170  0.43560  0.71390  1.0000
  O   O80       1.0  0.28170  0.06440  0.28610  1.0000
  O   O81       1.0  0.21390  0.71830  0.56440  1.0000
  O   O82       1.0  0.78610  0.21830  0.93560  1.0000
  O   O83       1.0  0.71390  0.78170  0.43560  1.0000
  O   O84       1.0  0.28610  0.28170  0.06440  1.0000
  O   O85       1.0  0.46390  0.81440  0.96830  1.0000
  O   O86       1.0  0.03610  0.18560  0.46830  1.0000
  O   O87       1.0  0.96390  0.68560  0.03170  1.0000
  O   O88       1.0  0.53610  0.31440  0.53170  1.0000
  O   O89       1.0  0.81440  0.96830  0.46390  1.0000
  O   O90       1.0  0.18560  0.46830  0.03610  1.0000
  O   O91       1.0  0.68560  0.03170  0.96390  1.0000
  O   O92       1.0  0.31440  0.53170  0.53610  1.0000
  O   O93       1.0  0.96830  0.46390  0.81440  1.0000
  O   O94       1.0  0.46830  0.03610  0.18560  1.0000
  O   O95       1.0  0.03170  0.96390  0.68560  1.0000
  O   O96       1.0  0.53170  0.53610  0.31440  1.0000
  C   C1        1.0  0.15330  0.77870  0.25290  1.0000
  C   C2        1.0  0.34670  0.22130  0.75290  1.0000
  C   C3        1.0  0.84670  0.27870  0.24710  1.0000
  C   C4        1.0  0.65330  0.72130  0.74710  1.0000
  C   C5        1.0  0.25290  0.15330  0.77870  1.0000
  C   C6        1.0  0.75290  0.34670  0.22130  1.0000
  C   C7        1.0  0.24710  0.84670  0.27870  1.0000
  C   C8        1.0  0.74710  0.65330  0.72130  1.0000
  C   C9        1.0  0.77870  0.25290  0.15330  1.0000
  C   C10       1.0  0.22130  0.75290  0.34670  1.0000
  C   C11       1.0  0.27870  0.24710  0.84670  1.0000
  C   C12       1.0  0.72130  0.74710  0.65330  1.0000
  C   C13       1.0  0.02870  0.40330  0.50290  1.0000
  C   C14       1.0  0.47130  0.59670  0.00290  1.0000
  C   C15       1.0  0.52870  0.09670  0.49710  1.0000
  C   C16       1.0  0.97130  0.90330  0.99710  1.0000
  C   C17       1.0  0.40330  0.50290  0.02870  1.0000
  C   C18       1.0  0.59670  0.00290  0.47130  1.0000
  C   C19       1.0  0.09670  0.49710  0.52870  1.0000
  C   C20       1.0  0.90330  0.99710  0.97130  1.0000
  C   C21       1.0  0.50290  0.02870  0.40330  1.0000
  C   C22       1.0  0.00290  0.47130  0.59670  1.0000
  C   C23       1.0  0.49710  0.52870  0.09670  1.0000
  C   C24       1.0  0.99710  0.97130  0.90330  1.0000
  C   C25       1.0  0.65330  0.27870  0.75290  1.0000
  C   C26       1.0  0.84670  0.72130  0.25290  1.0000
  C   C27       1.0  0.34670  0.77870  0.74710  1.0000
  C   C28       1.0  0.15330  0.22130  0.24710  1.0000
  C   C29       1.0  0.75290  0.65330  0.27870  1.0000
  C   C30       1.0  0.25290  0.84670  0.72130  1.0000
  C   C31       1.0  0.74710  0.34670  0.77870  1.0000
  C   C32       1.0  0.24710  0.15330  0.22130  1.0000
  C   C33       1.0  0.27870  0.75290  0.65330  1.0000
  C   C34       1.0  0.72130  0.25290  0.84670  1.0000
  C   C35       1.0  0.77870  0.74710  0.34670  1.0000
  C   C36       1.0  0.22130  0.24710  0.15330  1.0000
  C   C37       1.0  0.52870  0.90330  0.00290  1.0000
  C   C38       1.0  0.97130  0.09670  0.50290  1.0000
  C   C39       1.0  0.02870  0.59670  0.99710  1.0000
  C   C40       1.0  0.47130  0.40330  0.49710  1.0000
  C   C41       1.0  0.90330  0.00290  0.52870  1.0000
  C   C42       1.0  0.09670  0.50290  0.97130  1.0000
  C   C43       1.0  0.59670  0.99710  0.02870  1.0000
  C   C44       1.0  0.40330  0.49710  0.47130  1.0000
  C   C45       1.0  0.00290  0.52870  0.90330  1.0000
  C   C46       1.0  0.50290  0.97130  0.09670  1.0000
  C   C47       1.0  0.99710  0.02870  0.59670  1.0000
  C   C48       1.0  0.49710  0.47130  0.40330  1.0000
  C   C49       1.0  0.16680  0.73980  0.30620  1.0000
  C   C50       1.0  0.33320  0.26020  0.80620  1.0000
  C   C51       1.0  0.83320  0.23980  0.19380  1.0000
  C   C52       1.0  0.66680  0.76020  0.69380  1.0000
  C   C53       1.0  0.30620  0.16680  0.73980  1.0000
  C   C54       1.0  0.80620  0.33320  0.26020  1.0000
  C   C55       1.0  0.19380  0.83320  0.23980  1.0000
  C   C56       1.0  0.69380  0.66680  0.76020  1.0000
  C   C57       1.0  0.73980  0.30620  0.16680  1.0000
  C   C58       1.0  0.26020  0.80620  0.33320  1.0000
  C   C59       1.0  0.23980  0.19380  0.83320  1.0000
  C   C60       1.0  0.76020  0.69380  0.66680  1.0000
  C   C61       1.0  0.98980  0.41680  0.55620  1.0000
  C   C62       1.0  0.51020  0.58320  0.05620  1.0000
  C   C63       1.0  0.48980  0.08320  0.44380  1.0000
  C   C64       1.0  0.01020  0.91680  0.94380  1.0000
  C   C65       1.0  0.41680  0.55620  0.98980  1.0000
  C   C66       1.0  0.58320  0.05620  0.51020  1.0000
  C   C67       1.0  0.08320  0.44380  0.48980  1.0000
  C   C68       1.0  0.91680  0.94380  0.01020  1.0000
  C   C69       1.0  0.55620  0.98980  0.41680  1.0000
  C   C70       1.0  0.05620  0.51020  0.58320  1.0000
  C   C71       1.0  0.44380  0.48980  0.08320  1.0000
  C   C72       1.0  0.94380  0.01020  0.91680  1.0000
  C   C73       1.0  0.66680  0.23980  0.80620  1.0000
  C   C74       1.0  0.83320  0.76020  0.30620  1.0000
  C   C75       1.0  0.33320  0.73980  0.69380  1.0000
  C   C76       1.0  0.16680  0.26020  0.19380  1.0000
  C   C77       1.0  0.80620  0.66680  0.23980  1.0000
  C   C78       1.0  0.30620  0.83320  0.76020  1.0000
  C   C79       1.0  0.69380  0.33320  0.73980  1.0000
  C   C80       1.0  0.19380  0.16680  0.26020  1.0000
  C   C81       1.0  0.23980  0.80620  0.66680  1.0000
  C   C82       1.0  0.76020  0.30620  0.83320  1.0000
  C   C83       1.0  0.73980  0.69380  0.33320  1.0000
  C   C84       1.0  0.26020  0.19380  0.16680  1.0000
  C   C85       1.0  0.48980  0.91680  0.05620  1.0000
  C   C86       1.0  0.01020  0.08320  0.55620  1.0000
  C   C87       1.0  0.98980  0.58320  0.94380  1.0000
  C   C88       1.0  0.51020  0.41680  0.44380  1.0000
  C   C89       1.0  0.91680  0.05620  0.48980  1.0000
  C   C90       1.0  0.08320  0.55620  0.01020  1.0000
  C   C91       1.0  0.58320  0.94380  0.98980  1.0000
  C   C92       1.0  0.41680  0.44380  0.51020  1.0000
  C   C93       1.0  0.05620  0.48980  0.91680  1.0000
  C   C94       1.0  0.55620  0.01020  0.08320  1.0000
  C   C95       1.0  0.94380  0.98980  0.58320  1.0000
  C   C96       1.0  0.44380  0.51020  0.41680  1.0000
  H   H1        1.0  0.13970  0.70450  0.31570  1.0000
  H   H2        1.0  0.36030  0.29550  0.81570  1.0000
  H   H3        1.0  0.86030  0.20450  0.18430  1.0000
  H   H4        1.0  0.63970  0.79550  0.68430  1.0000
  H   H5        1.0  0.31570  0.13970  0.70450  1.0000
  H   H6        1.0  0.81570  0.36030  0.29550  1.0000
  H   H7        1.0  0.18430  0.86030  0.20450  1.0000
  H   H8        1.0  0.68430  0.63970  0.79550  1.0000
  H   H9        1.0  0.70450  0.31570  0.13970  1.0000
  H   H10       1.0  0.29550  0.81570  0.36030  1.0000
  H   H11       1.0  0.20450  0.18430  0.86030  1.0000
  H   H12       1.0  0.79550  0.68430  0.63970  1.0000
  H   H13       1.0  0.95450  0.38970  0.56570  1.0000
  H   H14       1.0  0.54550  0.61030  0.06570  1.0000
  H   H15       1.0  0.45450  0.11030  0.43430  1.0000
  H   H16       1.0  0.04550  0.88970  0.93430  1.0000
  H   H17       1.0  0.38970  0.56570  0.95450  1.0000
  H   H18       1.0  0.61030  0.06570  0.54550  1.0000
  H   H19       1.0  0.11030  0.43430  0.45450  1.0000
  H   H20       1.0  0.88970  0.93430  0.04550  1.0000
  H   H21       1.0  0.56570  0.95450  0.38970  1.0000
  H   H22       1.0  0.06570  0.54550  0.61030  1.0000
  H   H23       1.0  0.43430  0.45450  0.11030  1.0000
  H   H24       1.0  0.93430  0.04550  0.88970  1.0000
  H   H25       1.0  0.63970  0.20450  0.81570  1.0000
  H   H26       1.0  0.86030  0.79550  0.31570  1.0000
  H   H27       1.0  0.36030  0.70450  0.68430  1.0000
  H   H28       1.0  0.13970  0.29550  0.18430  1.0000
  H   H29       1.0  0.81570  0.63970  0.20450  1.0000
  H   H30       1.0  0.31570  0.86030  0.79550  1.0000
  H   H31       1.0  0.68430  0.36030  0.70450  1.0000
  H   H32       1.0  0.18430  0.13970  0.29550  1.0000
  H   H33       1.0  0.20450  0.81570  0.63970  1.0000
  H   H34       1.0  0.79550  0.31570  0.86030  1.0000
  H   H35       1.0  0.70450  0.68430  0.36030  1.0000
  H   H36       1.0  0.29550  0.18430  0.13970  1.0000
  H   H37       1.0  0.45450  0.88970  0.06570  1.0000
  H   H38       1.0  0.04550  0.11030  0.56570  1.0000
  H   H39       1.0  0.95450  0.61030  0.93430  1.0000
  H   H40       1.0  0.54550  0.38970  0.43430  1.0000
  H   H41       1.0  0.88970  0.06570  0.45450  1.0000
  H   H42       1.0  0.11030  0.56570  0.04550  1.0000
  H   H43       1.0  0.61030  0.93430  0.95450  1.0000
  H   H44       1.0  0.38970  0.43430  0.54550  1.0000
  H   H45       1.0  0.06570  0.45450  0.88970  1.0000
  H   H46       1.0  0.56570  0.04550  0.11030  1.0000
  H   H47       1.0  0.93430  0.95450  0.61030  1.0000
  H   H48       1.0  0.43430  0.54550  0.38970  1.0000
  C   C97       1.0  0.09780  0.76390  0.21030  1.0000
  C   C98       1.0  0.40220  0.23610  0.71030  1.0000
  C   C99       1.0  0.90220  0.26390  0.28970  1.0000
  C   C100      1.0  0.59780  0.73610  0.78970  1.0000
  C   C101      1.0  0.21030  0.09780  0.76390  1.0000
  C   C102      1.0  0.71030  0.40220  0.23610  1.0000
  C   C103      1.0  0.28970  0.90220  0.26390  1.0000
  C   C104      1.0  0.78970  0.59780  0.73610  1.0000
  C   C105      1.0  0.76390  0.21030  0.09780  1.0000
  C   C106      1.0  0.23610  0.71030  0.40220  1.0000
  C   C107      1.0  0.26390  0.28970  0.90220  1.0000
  C   C108      1.0  0.73610  0.78970  0.59780  1.0000
  C   C109      1.0  0.01390  0.34780  0.46030  1.0000
  C   C110      1.0  0.48610  0.65220  0.96030  1.0000
  C   C111      1.0  0.51390  0.15220  0.53970  1.0000
  C   C112      1.0  0.98610  0.84780  0.03970  1.0000
  C   C113      1.0  0.34780  0.46030  0.01390  1.0000
  C   C114      1.0  0.65220  0.96030  0.48610  1.0000
  C   C115      1.0  0.15220  0.53970  0.51390  1.0000
  C   C116      1.0  0.84780  0.03970  0.98610  1.0000
  C   C117      1.0  0.46030  0.01390  0.34780  1.0000
  C   C118      1.0  0.96030  0.48610  0.65220  1.0000
  C   C119      1.0  0.53970  0.51390  0.15220  1.0000
  C   C120      1.0  0.03970  0.98610  0.84780  1.0000
  C   C121      1.0  0.59780  0.26390  0.71030  1.0000
  C   C122      1.0  0.90220  0.73610  0.21030  1.0000
  C   C123      1.0  0.40220  0.76390  0.78970  1.0000
  C   C124      1.0  0.09780  0.23610  0.28970  1.0000
  C   C125      1.0  0.71030  0.59780  0.26390  1.0000
  C   C126      1.0  0.21030  0.90220  0.73610  1.0000
  C   C127      1.0  0.78970  0.40220  0.76390  1.0000
  C   C128      1.0  0.28970  0.09780  0.23610  1.0000
  C   C129      1.0  0.26390  0.71030  0.59780  1.0000
  C   C130      1.0  0.73610  0.21030  0.90220  1.0000
  C   C131      1.0  0.76390  0.78970  0.40220  1.0000
  C   C132      1.0  0.23610  0.28970  0.09780  1.0000
  C   C133      1.0  0.51390  0.84780  0.96030  1.0000
  C   C134      1.0  0.98610  0.15220  0.46030  1.0000
  C   C135      1.0  0.01390  0.65220  0.03970  1.0000
  C   C136      1.0  0.48610  0.34780  0.53970  1.0000
  C   C137      1.0  0.84780  0.96030  0.51390  1.0000
  C   C138      1.0  0.15220  0.46030  0.98610  1.0000
  C   C139      1.0  0.65220  0.03970  0.01390  1.0000
  C   C140      1.0  0.34780  0.53970  0.48610  1.0000
  C   C141      1.0  0.96030  0.51390  0.84780  1.0000
  C   C142      1.0  0.46030  0.98610  0.15220  1.0000
  C   C143      1.0  0.03970  0.01390  0.65220  1.0000
  C   C144      1.0  0.53970  0.48610  0.34780  1.0000
