data_image0
_chemical_formula_structural       Cu8O48C24H8C8H8C16H8C8H8C40H8C8H8C16H8C8H8C20H8C8H8C20H8C8H8C8
_chemical_formula_sum              "Cu8 O48 C192 H96"
_cell_length_a       12.8598
_cell_length_b       29.261
_cell_length_c       13.8247
_cell_angle_alpha    90
_cell_angle_beta     103.98
_cell_angle_gamma    90

_space_group_name_H-M_alt    "P 1"
_space_group_IT_number       1

loop_
  _space_group_symop_operation_xyz
  'x, y, z'

loop_
  _atom_site_type_symbol
  _atom_site_label
  _atom_site_symmetry_multiplicity
  _atom_site_fract_x
  _atom_site_fract_y
  _atom_site_fract_z
  _atom_site_occupancy
  Cu  Cu1       1.0  0.25000  0.23840  0.50000  1.0000
  Cu  Cu2       1.0  0.75000  0.73840  0.00000  1.0000
  Cu  Cu3       1.0  0.75000  0.76160  0.50000  1.0000
  Cu  Cu4       1.0  0.25000  0.26160  0.00000  1.0000
  Cu  Cu5       1.0  0.25000  0.89610  0.50000  1.0000
  Cu  Cu6       1.0  0.75000  0.39610  0.00000  1.0000
  Cu  Cu7       1.0  0.75000  0.10390  0.50000  1.0000
  Cu  Cu8       1.0  0.25000  0.60390  0.00000  1.0000
  O   O1        1.0  0.30430  0.19486  0.60670  1.0000
  O   O2        1.0  0.19570  0.19486  0.39330  1.0000
  O   O3        1.0  0.80430  0.69486  0.10670  1.0000
  O   O4        1.0  0.69570  0.69486  0.89330  1.0000
  O   O5        1.0  0.69570  0.80514  0.39330  1.0000
  O   O6        1.0  0.80430  0.80514  0.60670  1.0000
  O   O7        1.0  0.19570  0.30514  0.89330  1.0000
  O   O8        1.0  0.30430  0.30514  0.10670  1.0000
  O   O9        1.0  0.44310  0.21450  0.54600  1.0000
  O   O10       1.0  0.05690  0.21450  0.45400  1.0000
  O   O11       1.0  0.94310  0.71450  0.04600  1.0000
  O   O12       1.0  0.55690  0.71450  0.95400  1.0000
  O   O13       1.0  0.55690  0.78550  0.45400  1.0000
  O   O14       1.0  0.94310  0.78550  0.54600  1.0000
  O   O15       1.0  0.05690  0.28550  0.95400  1.0000
  O   O16       1.0  0.44310  0.28550  0.04600  1.0000
  O   O17       1.0  0.38240  0.94620  0.52570  1.0000
  O   O18       1.0  0.11760  0.94620  0.47430  1.0000
  O   O19       1.0  0.88240  0.44620  0.02570  1.0000
  O   O20       1.0  0.61760  0.44620  0.97430  1.0000
  O   O21       1.0  0.61760  0.05380  0.47430  1.0000
  O   O22       1.0  0.88240  0.05380  0.52570  1.0000
  O   O23       1.0  0.11760  0.55380  0.97430  1.0000
  O   O24       1.0  0.38240  0.55380  0.02570  1.0000
  O   O25       1.0  0.32510  0.90900  0.64060  1.0000
  O   O26       1.0  0.17490  0.90900  0.35940  1.0000
  O   O27       1.0  0.82510  0.40900  0.14060  1.0000
  O   O28       1.0  0.67490  0.40900  0.85940  1.0000
  O   O29       1.0  0.67490  0.09100  0.35940  1.0000
  O   O30       1.0  0.82510  0.09100  0.64060  1.0000
  O   O31       1.0  0.17490  0.59100  0.85940  1.0000
  O   O32       1.0  0.32510  0.59100  0.14060  1.0000
  O   O33       1.0  0.73110  0.79706  0.91870  1.0000
  O   O34       1.0  0.76890  0.79706  0.08130  1.0000
  O   O35       1.0  0.23110  0.29706  0.41870  1.0000
  O   O36       1.0  0.26890  0.29706  0.58130  1.0000
  O   O37       1.0  0.26890  0.20294  0.08130  1.0000
  O   O38       1.0  0.23110  0.20294  0.91870  1.0000
  O   O39       1.0  0.76890  0.70294  0.58130  1.0000
  O   O40       1.0  0.73110  0.70294  0.41870  1.0000
  O   O41       1.0  0.83760  0.33028  0.01450  1.0000
  O   O42       1.0  0.66240  0.33028  0.98550  1.0000
  O   O43       1.0  0.33760  0.83028  0.51450  1.0000
  O   O44       1.0  0.16240  0.83028  0.48550  1.0000
  O   O45       1.0  0.16240  0.66972  0.98550  1.0000
  O   O46       1.0  0.33760  0.66972  0.01450  1.0000
  O   O47       1.0  0.66240  0.16972  0.48550  1.0000
  O   O48       1.0  0.83760  0.16972  0.51450  1.0000
  C   C1        1.0  0.40460  0.19330  0.60680  1.0000
  C   C2        1.0  0.09540  0.19330  0.39320  1.0000
  C   C3        1.0  0.90460  0.69330  0.10680  1.0000
  C   C4        1.0  0.59540  0.69330  0.89320  1.0000
  C   C5        1.0  0.59540  0.80670  0.39320  1.0000
  C   C6        1.0  0.90460  0.80670  0.60680  1.0000
  C   C7        1.0  0.09540  0.30670  0.89320  1.0000
  C   C8        1.0  0.40460  0.30670  0.10680  1.0000
  C   C9        1.0  0.47720  0.16460  0.68690  1.0000
  C   C10       1.0  0.02280  0.16460  0.31310  1.0000
  C   C11       1.0  0.97720  0.66460  0.18690  1.0000
  C   C12       1.0  0.52280  0.66460  0.81310  1.0000
  C   C13       1.0  0.52280  0.83540  0.31310  1.0000
  C   C14       1.0  0.97720  0.83540  0.68690  1.0000
  C   C15       1.0  0.02280  0.33540  0.81310  1.0000
  C   C16       1.0  0.47720  0.33540  0.18690  1.0000
  C   C17       1.0  0.43320  0.14110  0.75540  1.0000
  C   C18       1.0  0.06680  0.14110  0.24460  1.0000
  C   C19       1.0  0.93320  0.64110  0.25540  1.0000
  C   C20       1.0  0.56680  0.64110  0.74460  1.0000
  C   C21       1.0  0.56680  0.85890  0.24460  1.0000
  C   C22       1.0  0.93320  0.85890  0.75540  1.0000
  C   C23       1.0  0.06680  0.35890  0.74460  1.0000
  C   C24       1.0  0.43320  0.35890  0.25540  1.0000
  H   H1        1.0  0.35991  0.14245  0.75077  1.0000
  H   H2        1.0  0.14009  0.14245  0.24923  1.0000
  H   H3        1.0  0.85991  0.64245  0.25077  1.0000
  H   H4        1.0  0.64009  0.64245  0.74923  1.0000
  H   H5        1.0  0.64009  0.85755  0.24923  1.0000
  H   H6        1.0  0.85991  0.85755  0.75077  1.0000
  H   H7        1.0  0.14009  0.35755  0.74923  1.0000
  H   H8        1.0  0.35991  0.35755  0.25077  1.0000
  C   C25       1.0  0.49940  0.11590  0.83030  1.0000
  C   C26       1.0  0.00060  0.11590  0.16970  1.0000
  C   C27       1.0  0.99940  0.61590  0.33030  1.0000
  C   C28       1.0  0.50060  0.61590  0.66970  1.0000
  C   C29       1.0  0.50060  0.88410  0.16970  1.0000
  C   C30       1.0  0.99940  0.88410  0.83030  1.0000
  C   C31       1.0  0.00060  0.38410  0.66970  1.0000
  C   C32       1.0  0.49940  0.38410  0.33030  1.0000
  H   H9        1.0  0.46956  0.09979  0.87493  1.0000
  H   H10       1.0  0.03044  0.09979  0.12507  1.0000
  H   H11       1.0  0.96956  0.59979  0.37493  1.0000
  H   H12       1.0  0.53044  0.59979  0.62507  1.0000
  H   H13       1.0  0.53044  0.90021  0.12507  1.0000
  H   H14       1.0  0.96956  0.90021  0.87493  1.0000
  H   H15       1.0  0.03044  0.40021  0.62507  1.0000
  H   H16       1.0  0.46956  0.40021  0.37493  1.0000
  C   C33       1.0  0.60810  0.11424  0.84000  1.0000
  C   C34       1.0  0.89190  0.11424  0.16000  1.0000
  C   C35       1.0  0.10810  0.61424  0.34000  1.0000
  C   C36       1.0  0.39190  0.61424  0.66000  1.0000
  C   C37       1.0  0.39190  0.88576  0.16000  1.0000
  C   C38       1.0  0.10810  0.88576  0.84000  1.0000
  C   C39       1.0  0.89190  0.38576  0.66000  1.0000
  C   C40       1.0  0.60810  0.38576  0.34000  1.0000
  C   C41       1.0  0.65130  0.13780  0.77050  1.0000
  C   C42       1.0  0.84870  0.13780  0.22950  1.0000
  C   C43       1.0  0.15130  0.63780  0.27050  1.0000
  C   C44       1.0  0.34870  0.63780  0.72950  1.0000
  C   C45       1.0  0.34870  0.86220  0.22950  1.0000
  C   C46       1.0  0.15130  0.86220  0.77050  1.0000
  C   C47       1.0  0.84870  0.36220  0.72950  1.0000
  C   C48       1.0  0.65130  0.36220  0.27050  1.0000
  H   H17       1.0  0.72467  0.13698  0.77550  1.0000
  H   H18       1.0  0.77533  0.13698  0.22450  1.0000
  H   H19       1.0  0.22467  0.63698  0.27550  1.0000
  H   H20       1.0  0.27533  0.63698  0.72450  1.0000
  H   H21       1.0  0.27533  0.86302  0.22450  1.0000
  H   H22       1.0  0.22467  0.86302  0.77550  1.0000
  H   H23       1.0  0.77533  0.36302  0.72450  1.0000
  H   H24       1.0  0.72467  0.36302  0.27550  1.0000
  C   C49       1.0  0.58470  0.16240  0.69420  1.0000
  C   C50       1.0  0.91530  0.16240  0.30580  1.0000
  C   C51       1.0  0.08470  0.66240  0.19420  1.0000
  C   C52       1.0  0.41530  0.66240  0.80580  1.0000
  C   C53       1.0  0.41530  0.83760  0.30580  1.0000
  C   C54       1.0  0.08470  0.83760  0.69420  1.0000
  C   C55       1.0  0.91530  0.33760  0.80580  1.0000
  C   C56       1.0  0.58470  0.33760  0.19420  1.0000
  H   H25       1.0  0.61373  0.17754  0.64762  1.0000
  H   H26       1.0  0.88627  0.17754  0.35238  1.0000
  H   H27       1.0  0.11373  0.67754  0.14762  1.0000
  H   H28       1.0  0.38627  0.67754  0.85238  1.0000
  H   H29       1.0  0.38627  0.82246  0.35238  1.0000
  H   H30       1.0  0.11373  0.82246  0.64762  1.0000
  H   H31       1.0  0.88627  0.32246  0.85238  1.0000
  H   H32       1.0  0.61373  0.32246  0.14762  1.0000
  C   C57       1.0  0.68000  0.08790  0.92170  1.0000
  C   C58       1.0  0.82000  0.08790  0.07830  1.0000
  C   C59       1.0  0.18000  0.58790  0.42170  1.0000
  C   C60       1.0  0.32000  0.58790  0.57830  1.0000
  C   C61       1.0  0.32000  0.91210  0.07830  1.0000
  C   C62       1.0  0.18000  0.91210  0.92170  1.0000
  C   C63       1.0  0.82000  0.41210  0.57830  1.0000
  C   C64       1.0  0.68000  0.41210  0.42170  1.0000
  C   C65       1.0  0.67840  0.04004  0.92300  1.0000
  C   C66       1.0  0.82160  0.04004  0.07700  1.0000
  C   C67       1.0  0.17840  0.54004  0.42300  1.0000
  C   C68       1.0  0.32160  0.54004  0.57700  1.0000
  C   C69       1.0  0.32160  0.95996  0.07700  1.0000
  C   C70       1.0  0.17840  0.95996  0.92300  1.0000
  C   C71       1.0  0.82160  0.45996  0.57700  1.0000
  C   C72       1.0  0.67840  0.45996  0.42300  1.0000
  C   C73       1.0  0.75000  0.01620  0.00000  1.0000
  C   C74       1.0  0.25000  0.51620  0.50000  1.0000
  C   C75       1.0  0.25000  0.98380  0.00000  1.0000
  C   C76       1.0  0.75000  0.48380  0.50000  1.0000
  C   C77       1.0  0.75000  0.11160  0.00000  1.0000
  C   C78       1.0  0.25000  0.61160  0.50000  1.0000
  C   C79       1.0  0.25000  0.88840  0.00000  1.0000
  C   C80       1.0  0.75000  0.38840  0.50000  1.0000
  C   C81       1.0  0.60240  0.01484  0.84220  1.0000
  C   C82       1.0  0.89760  0.01484  0.15780  1.0000
  C   C83       1.0  0.10240  0.51484  0.34220  1.0000
  C   C84       1.0  0.39760  0.51484  0.65780  1.0000
  C   C85       1.0  0.39760  0.98516  0.15780  1.0000
  C   C86       1.0  0.10240  0.98516  0.84220  1.0000
  C   C87       1.0  0.89760  0.48516  0.65780  1.0000
  C   C88       1.0  0.60240  0.48516  0.34220  1.0000
  C   C89       1.0  0.60690  0.01920  0.74310  1.0000
  C   C90       1.0  0.89310  0.01920  0.25690  1.0000
  C   C91       1.0  0.10690  0.51920  0.24310  1.0000
  C   C92       1.0  0.39310  0.51920  0.75690  1.0000
  C   C93       1.0  0.39310  0.98080  0.25690  1.0000
  C   C94       1.0  0.10690  0.98080  0.74310  1.0000
  C   C95       1.0  0.89310  0.48080  0.75690  1.0000
  C   C96       1.0  0.60690  0.48080  0.24310  1.0000
  H   H33       1.0  0.65728  0.03837  0.72600  1.0000
  H   H34       1.0  0.84272  0.03837  0.27400  1.0000
  H   H35       1.0  0.15728  0.53837  0.22600  1.0000
  H   H36       1.0  0.34272  0.53837  0.77400  1.0000
  H   H37       1.0  0.34272  0.96163  0.27400  1.0000
  H   H38       1.0  0.15728  0.96163  0.72600  1.0000
  H   H39       1.0  0.84272  0.46163  0.77400  1.0000
  H   H40       1.0  0.65728  0.46163  0.22600  1.0000
  C   C97       1.0  0.53510  0.99460  0.66950  1.0000
  C   C98       1.0  0.96490  0.99460  0.33050  1.0000
  C   C99       1.0  0.03510  0.49460  0.16950  1.0000
  C   C100      1.0  0.46490  0.49460  0.83050  1.0000
  C   C101      1.0  0.46490  0.00540  0.33050  1.0000
  C   C102      1.0  0.03510  0.00540  0.66950  1.0000
  C   C103      1.0  0.96490  0.50540  0.83050  1.0000
  C   C104      1.0  0.53510  0.50540  0.16950  1.0000
  H   H41       1.0  0.53837  0.99722  0.60328  1.0000
  H   H42       1.0  0.96163  0.99722  0.39672  1.0000
  H   H43       1.0  0.03837  0.49722  0.10328  1.0000
  H   H44       1.0  0.46163  0.49722  0.89672  1.0000
  H   H45       1.0  0.46163  0.00278  0.39672  1.0000
  H   H46       1.0  0.03837  0.00278  0.60328  1.0000
  H   H47       1.0  0.96163  0.50278  0.89672  1.0000
  H   H48       1.0  0.53837  0.50278  0.10328  1.0000
  C   C105      1.0  0.45870  0.96620  0.69460  1.0000
  C   C106      1.0  0.04130  0.96620  0.30540  1.0000
  C   C107      1.0  0.95870  0.46620  0.19460  1.0000
  C   C108      1.0  0.54130  0.46620  0.80540  1.0000
  C   C109      1.0  0.54130  0.03380  0.30540  1.0000
  C   C110      1.0  0.95870  0.03380  0.69460  1.0000
  C   C111      1.0  0.04130  0.53380  0.80540  1.0000
  C   C112      1.0  0.45870  0.53380  0.19460  1.0000
  C   C113      1.0  0.45460  0.96170  0.79280  1.0000
  C   C114      1.0  0.04540  0.96170  0.20720  1.0000
  C   C115      1.0  0.95460  0.46170  0.29280  1.0000
  C   C116      1.0  0.54540  0.46170  0.70720  1.0000
  C   C117      1.0  0.54540  0.03830  0.20720  1.0000
  C   C118      1.0  0.95460  0.03830  0.79280  1.0000
  C   C119      1.0  0.04540  0.53830  0.70720  1.0000
  C   C120      1.0  0.45460  0.53830  0.29280  1.0000
  H   H49       1.0  0.40482  0.94218  0.80979  1.0000
  H   H50       1.0  0.09518  0.94218  0.19021  1.0000
  H   H51       1.0  0.90482  0.44218  0.30979  1.0000
  H   H52       1.0  0.59518  0.44218  0.69021  1.0000
  H   H53       1.0  0.59518  0.05782  0.19021  1.0000
  H   H54       1.0  0.90482  0.05782  0.80979  1.0000
  H   H55       1.0  0.09518  0.55782  0.69021  1.0000
  H   H56       1.0  0.40482  0.55782  0.30979  1.0000
  C   C121      1.0  0.52490  0.98640  0.86640  1.0000
  C   C122      1.0  0.97510  0.98640  0.13360  1.0000
  C   C123      1.0  0.02490  0.48640  0.36640  1.0000
  C   C124      1.0  0.47510  0.48640  0.63360  1.0000
  C   C125      1.0  0.47510  0.01360  0.13360  1.0000
  C   C126      1.0  0.02490  0.01360  0.86640  1.0000
  C   C127      1.0  0.97510  0.51360  0.63360  1.0000
  C   C128      1.0  0.52490  0.51360  0.36640  1.0000
  H   H57       1.0  0.52049  0.98394  0.93238  1.0000
  H   H58       1.0  0.97951  0.98394  0.06762  1.0000
  H   H59       1.0  0.02049  0.48394  0.43238  1.0000
  H   H60       1.0  0.47951  0.48394  0.56762  1.0000
  H   H61       1.0  0.47951  0.01606  0.06762  1.0000
  H   H62       1.0  0.02049  0.01606  0.93238  1.0000
  H   H63       1.0  0.97951  0.51606  0.56762  1.0000
  H   H64       1.0  0.52049  0.51606  0.43238  1.0000
  C   C129      1.0  0.38430  0.93960  0.61520  1.0000
  C   C130      1.0  0.11570  0.93960  0.38480  1.0000
  C   C131      1.0  0.88430  0.43960  0.11520  1.0000
  C   C132      1.0  0.61570  0.43960  0.88480  1.0000
  C   C133      1.0  0.61570  0.06040  0.38480  1.0000
  C   C134      1.0  0.88430  0.06040  0.61520  1.0000
  C   C135      1.0  0.11570  0.56040  0.88480  1.0000
  C   C136      1.0  0.38430  0.56040  0.11520  1.0000
  C   C137      1.0  0.75000  0.96490  0.00000  1.0000
  C   C138      1.0  0.25000  0.46490  0.50000  1.0000
  C   C139      1.0  0.25000  0.03510  0.00000  1.0000
  C   C140      1.0  0.75000  0.53510  0.50000  1.0000
  C   C141      1.0  0.76340  0.94104  0.91710  1.0000
  C   C142      1.0  0.73660  0.94104  0.08290  1.0000
  C   C143      1.0  0.26340  0.44104  0.41710  1.0000
  C   C144      1.0  0.23660  0.44104  0.58290  1.0000
  C   C145      1.0  0.23660  0.05896  0.08290  1.0000
  C   C146      1.0  0.26340  0.05896  0.91710  1.0000
  C   C147      1.0  0.73660  0.55896  0.58290  1.0000
  C   C148      1.0  0.76340  0.55896  0.41710  1.0000
  H   H65       1.0  0.77415  0.95681  0.86187  1.0000
  H   H66       1.0  0.72585  0.95681  0.13813  1.0000
  H   H67       1.0  0.27415  0.45681  0.36187  1.0000
  H   H68       1.0  0.22585  0.45681  0.63813  1.0000
  H   H69       1.0  0.22585  0.04319  0.13813  1.0000
  H   H70       1.0  0.27415  0.04319  0.86187  1.0000
  H   H71       1.0  0.72585  0.54319  0.63813  1.0000
  H   H72       1.0  0.77415  0.54319  0.36187  1.0000
  C   C149      1.0  0.76080  0.89320  0.91660  1.0000
  C   C150      1.0  0.73920  0.89320  0.08340  1.0000
  C   C151      1.0  0.26080  0.39320  0.41660  1.0000
  C   C152      1.0  0.23920  0.39320  0.58340  1.0000
  C   C153      1.0  0.23920  0.10680  0.08340  1.0000
  C   C154      1.0  0.26080  0.10680  0.91660  1.0000
  C   C155      1.0  0.73920  0.60680  0.58340  1.0000
  C   C156      1.0  0.76080  0.60680  0.41660  1.0000
  H   H73       1.0  0.76641  0.87734  0.85983  1.0000
  H   H74       1.0  0.73359  0.87734  0.14017  1.0000
  H   H75       1.0  0.26641  0.37734  0.35983  1.0000
  H   H76       1.0  0.23359  0.37734  0.64017  1.0000
  H   H77       1.0  0.23359  0.12266  0.14017  1.0000
  H   H78       1.0  0.26641  0.12266  0.85983  1.0000
  H   H79       1.0  0.73359  0.62266  0.64017  1.0000
  H   H80       1.0  0.76641  0.62266  0.35983  1.0000
  C   C157      1.0  0.75000  0.86960  0.00000  1.0000
  C   C158      1.0  0.25000  0.36960  0.50000  1.0000
  C   C159      1.0  0.25000  0.13040  0.00000  1.0000
  C   C160      1.0  0.75000  0.63040  0.50000  1.0000
  C   C161      1.0  0.75000  0.81840  0.00000  1.0000
  C   C162      1.0  0.25000  0.31840  0.50000  1.0000
  C   C163      1.0  0.25000  0.18160  0.00000  1.0000
  C   C164      1.0  0.75000  0.68160  0.50000  1.0000
  C   C165      1.0  0.75000  0.16280  0.00000  1.0000
  C   C166      1.0  0.25000  0.66280  0.50000  1.0000
  C   C167      1.0  0.25000  0.83720  0.00000  1.0000
  C   C168      1.0  0.75000  0.33720  0.50000  1.0000
  C   C169      1.0  0.83750  0.18710  0.98270  1.0000
  C   C170      1.0  0.66250  0.18710  0.01730  1.0000
  C   C171      1.0  0.33750  0.68710  0.48270  1.0000
  C   C172      1.0  0.16250  0.68710  0.51730  1.0000
  C   C173      1.0  0.16250  0.81290  0.01730  1.0000
  C   C174      1.0  0.33750  0.81290  0.98270  1.0000
  C   C175      1.0  0.66250  0.31290  0.51730  1.0000
  C   C176      1.0  0.83750  0.31290  0.48270  1.0000
  H   H81       1.0  0.89598  0.17123  0.97110  1.0000
  H   H82       1.0  0.60402  0.17123  0.02890  1.0000
  H   H83       1.0  0.39598  0.67123  0.47110  1.0000
  H   H84       1.0  0.10402  0.67123  0.52890  1.0000
  H   H85       1.0  0.10402  0.82877  0.02890  1.0000
  H   H86       1.0  0.39598  0.82877  0.97110  1.0000
  H   H87       1.0  0.60402  0.32877  0.52890  1.0000
  H   H88       1.0  0.89598  0.32877  0.47110  1.0000
  C   C177      1.0  0.83810  0.23440  0.98270  1.0000
  C   C178      1.0  0.66190  0.23440  0.01730  1.0000
  C   C179      1.0  0.33810  0.73440  0.48270  1.0000
  C   C180      1.0  0.16190  0.73440  0.51730  1.0000
  C   C181      1.0  0.16190  0.76560  0.01730  1.0000
  C   C182      1.0  0.33810  0.76560  0.98270  1.0000
  C   C183      1.0  0.66190  0.26560  0.51730  1.0000
  C   C184      1.0  0.83810  0.26560  0.48270  1.0000
  H   H89       1.0  0.89677  0.25019  0.97135  1.0000
  H   H90       1.0  0.60323  0.25019  0.02865  1.0000
  H   H91       1.0  0.39677  0.75019  0.47135  1.0000
  H   H92       1.0  0.10323  0.75019  0.52865  1.0000
  H   H93       1.0  0.10323  0.74981  0.02865  1.0000
  H   H94       1.0  0.39677  0.74981  0.97135  1.0000
  H   H95       1.0  0.60323  0.24981  0.52865  1.0000
  H   H96       1.0  0.89677  0.24981  0.47135  1.0000
  C   C185      1.0  0.75000  0.25840  0.00000  1.0000
  C   C186      1.0  0.25000  0.75840  0.50000  1.0000
  C   C187      1.0  0.25000  0.74160  0.00000  1.0000
  C   C188      1.0  0.75000  0.24160  0.50000  1.0000
  C   C189      1.0  0.75000  0.30980  0.00000  1.0000
  C   C190      1.0  0.25000  0.80980  0.50000  1.0000
  C   C191      1.0  0.25000  0.69020  0.00000  1.0000
  C   C192      1.0  0.75000  0.19020  0.50000  1.0000
