data_image0
_chemical_formula_structural       C24H8C16H8C8N16Cu4
_chemical_formula_sum              "C48 H16 N16 Cu4"
_cell_length_a       8.2415
_cell_length_b       12.4248
_cell_length_c       20.658
_cell_angle_alpha    90
_cell_angle_beta     97.899
_cell_angle_gamma    90

_space_group_name_H-M_alt    "P 1"
_space_group_IT_number       1

loop_
  _space_group_symop_operation_xyz
  'x, y, z'

loop_
  _atom_site_type_symbol
  _atom_site_label
  _atom_site_symmetry_multiplicity
  _atom_site_fract_x
  _atom_site_fract_y
  _atom_site_fract_z
  _atom_site_occupancy
  C   C1        1.0  0.14000  0.62180  0.16700  1.0000
  C   C2        1.0  0.86000  0.62180  0.33300  1.0000
  C   C3        1.0  0.64000  0.12180  0.16700  1.0000
  C   C4        1.0  0.36000  0.12180  0.33300  1.0000
  C   C5        1.0  0.86000  0.37820  0.83300  1.0000
  C   C6        1.0  0.14000  0.37820  0.66700  1.0000
  C   C7        1.0  0.36000  0.87820  0.83300  1.0000
  C   C8        1.0  0.64000  0.87820  0.66700  1.0000
  C   C9        1.0  0.16400  0.52990  0.13130  1.0000
  C   C10       1.0  0.83600  0.52990  0.36870  1.0000
  C   C11       1.0  0.66400  0.02990  0.13130  1.0000
  C   C12       1.0  0.33600  0.02990  0.36870  1.0000
  C   C13       1.0  0.83600  0.47010  0.86870  1.0000
  C   C14       1.0  0.16400  0.47010  0.63130  1.0000
  C   C15       1.0  0.33600  0.97010  0.86870  1.0000
  C   C16       1.0  0.66400  0.97010  0.63130  1.0000
  C   C17       1.0  0.97330  0.59220  0.03420  1.0000
  C   C18       1.0  0.02670  0.59220  0.46580  1.0000
  C   C19       1.0  0.47330  0.09220  0.03420  1.0000
  C   C20       1.0  0.52670  0.09220  0.46580  1.0000
  C   C21       1.0  0.02670  0.40780  0.96580  1.0000
  C   C22       1.0  0.97330  0.40780  0.53420  1.0000
  C   C23       1.0  0.52670  0.90780  0.96580  1.0000
  C   C24       1.0  0.47330  0.90780  0.53420  1.0000
  H   H1        1.0  0.95390  0.65590  0.05750  1.0000
  H   H2        1.0  0.04610  0.65590  0.44250  1.0000
  H   H3        1.0  0.45390  0.15590  0.05750  1.0000
  H   H4        1.0  0.54610  0.15590  0.44250  1.0000
  H   H5        1.0  0.04610  0.34410  0.94250  1.0000
  H   H6        1.0  0.95390  0.34410  0.55750  1.0000
  H   H7        1.0  0.54610  0.84410  0.94250  1.0000
  H   H8        1.0  0.45390  0.84410  0.55750  1.0000
  C   C25       1.0  0.08390  0.51530  0.06390  1.0000
  C   C26       1.0  0.91610  0.51530  0.43610  1.0000
  C   C27       1.0  0.58390  0.01530  0.06390  1.0000
  C   C28       1.0  0.41610  0.01530  0.43610  1.0000
  C   C29       1.0  0.91610  0.48470  0.93610  1.0000
  C   C30       1.0  0.08390  0.48470  0.56390  1.0000
  C   C31       1.0  0.41610  0.98470  0.93610  1.0000
  C   C32       1.0  0.58390  0.98470  0.56390  1.0000
  C   C33       1.0  0.10860  0.42300  0.02860  1.0000
  C   C34       1.0  0.89140  0.42300  0.47140  1.0000
  C   C35       1.0  0.60860  0.92300  0.02860  1.0000
  C   C36       1.0  0.39140  0.92300  0.47140  1.0000
  C   C37       1.0  0.89140  0.57700  0.97140  1.0000
  C   C38       1.0  0.10860  0.57700  0.52860  1.0000
  C   C39       1.0  0.39140  0.07700  0.97140  1.0000
  C   C40       1.0  0.60860  0.07700  0.52860  1.0000
  H   H9        1.0  0.18250  0.36950  0.04760  1.0000
  H   H10       1.0  0.81750  0.36950  0.45240  1.0000
  H   H11       1.0  0.68250  0.86950  0.04760  1.0000
  H   H12       1.0  0.31750  0.86950  0.45240  1.0000
  H   H13       1.0  0.81750  0.63050  0.95240  1.0000
  H   H14       1.0  0.18250  0.63050  0.54760  1.0000
  H   H15       1.0  0.31750  0.13050  0.95240  1.0000
  H   H16       1.0  0.68250  0.13050  0.54760  1.0000
  C   C41       1.0  0.26910  0.45320  0.16290  1.0000
  C   C42       1.0  0.73090  0.45320  0.33710  1.0000
  C   C43       1.0  0.76910  0.95320  0.16290  1.0000
  C   C44       1.0  0.23090  0.95320  0.33710  1.0000
  C   C45       1.0  0.73090  0.54680  0.83710  1.0000
  C   C46       1.0  0.26910  0.54680  0.66290  1.0000
  C   C47       1.0  0.23090  0.04680  0.83710  1.0000
  C   C48       1.0  0.76910  0.04680  0.66290  1.0000
  N   N1        1.0  0.11580  0.69720  0.19560  1.0000
  N   N2        1.0  0.88420  0.69720  0.30440  1.0000
  N   N3        1.0  0.61580  0.19720  0.19560  1.0000
  N   N4        1.0  0.38420  0.19720  0.30440  1.0000
  N   N5        1.0  0.88420  0.30280  0.80440  1.0000
  N   N6        1.0  0.11580  0.30280  0.69560  1.0000
  N   N7        1.0  0.38420  0.80280  0.80440  1.0000
  N   N8        1.0  0.61580  0.80280  0.69560  1.0000
  N   N9        1.0  0.35270  0.38870  0.19150  1.0000
  N   N10       1.0  0.64730  0.38870  0.30850  1.0000
  N   N11       1.0  0.85270  0.88870  0.19150  1.0000
  N   N12       1.0  0.14730  0.88870  0.30850  1.0000
  N   N13       1.0  0.64730  0.61130  0.80850  1.0000
  N   N14       1.0  0.35270  0.61130  0.69150  1.0000
  N   N15       1.0  0.14730  0.11130  0.80850  1.0000
  N   N16       1.0  0.85270  0.11130  0.69150  1.0000
  Cu  Cu1       1.0  0.50000  0.29620  0.25000  1.0000
  Cu  Cu2       1.0  0.00000  0.79620  0.25000  1.0000
  Cu  Cu3       1.0  0.50000  0.70380  0.75000  1.0000
  Cu  Cu4       1.0  0.00000  0.20380  0.75000  1.0000
