data_image0
_chemical_formula_structural       U4O18N6C4H6C4H6C4
_chemical_formula_sum              "U4 O18 N6 C12 H12"
_cell_length_a       10.0087
_cell_length_b       10.6432
_cell_length_c       12.4241
_cell_angle_alpha    102.123
_cell_angle_beta     96.577
_cell_angle_gamma    103.46

_space_group_name_H-M_alt    "P 1"
_space_group_IT_number       1

loop_
  _space_group_symop_operation_xyz
  'x, y, z'

loop_
  _atom_site_type_symbol
  _atom_site_label
  _atom_site_symmetry_multiplicity
  _atom_site_fract_x
  _atom_site_fract_y
  _atom_site_fract_z
  _atom_site_occupancy
  U   U1        1.0  0.25560  0.00386  0.28531  1.0000
  U   U2        1.0  0.74440  0.99614  0.71469  1.0000
  U   U3        1.0  0.41451  0.81808  0.48427  1.0000
  U   U4        1.0  0.58549  0.18192  0.51573  1.0000
  O   O1        1.0  0.34840  0.97370  0.17500  1.0000
  O   O2        1.0  0.65160  0.02630  0.82500  1.0000
  O   O3        1.0  0.14790  0.03070  0.38630  1.0000
  O   O4        1.0  0.85210  0.96930  0.61370  1.0000
  O   O5        1.0  0.53500  0.76690  0.40060  1.0000
  O   O6        1.0  0.46500  0.23310  0.59940  1.0000
  O   O7        1.0  0.28480  0.85670  0.56410  1.0000
  O   O8        1.0  0.71520  0.14330  0.43590  1.0000
  O   O9        1.0  0.42380  0.99800  0.41050  1.0000
  O   O10       1.0  0.57620  0.00200  0.58950  1.0000
  O   O11       1.0  0.23150  0.78150  0.30470  1.0000
  O   O12       1.0  0.76850  0.21850  0.69530  1.0000
  O   O13       1.0  0.24360  0.60460  0.36320  1.0000
  O   O14       1.0  0.75640  0.39540  0.63680  1.0000
  O   O15       1.0  0.40040  0.62020  0.56920  1.0000
  O   O16       1.0  0.59960  0.37980  0.43080  1.0000
  O   O17       1.0  0.58700  0.78020  0.64450  1.0000
  O   O18       1.0  0.41300  0.21980  0.35550  1.0000
  N   N1        1.0  0.04010  0.86190  0.14940  1.0000
  N   N2        1.0  0.95990  0.13810  0.85060  1.0000
  N   N3        1.0  0.87850  0.75070  0.97450  1.0000
  N   N4        1.0  0.12150  0.24930  0.02550  1.0000
  N   N5        1.0  0.84490  0.84660  0.81490  1.0000
  N   N6        1.0  0.15510  0.15340  0.18510  1.0000
  C   C1        1.0  0.20650  0.65530  0.28630  1.0000
  C   C2        1.0  0.79350  0.34470  0.71370  1.0000
  C   C3        1.0  0.13380  0.56980  0.17410  1.0000
  C   C4        1.0  0.86620  0.43020  0.82590  1.0000
  H   H1        1.0  0.05680  0.60390  0.14710  1.0000
  H   H2        1.0  0.94320  0.39610  0.85290  1.0000
  H   H3        1.0  0.09710  0.47820  0.17980  1.0000
  H   H4        1.0  0.90290  0.52180  0.82020  1.0000
  H   H5        1.0  0.19990  0.57140  0.12160  1.0000
  H   H6        1.0  0.80010  0.42860  0.87840  1.0000
  C   C5        1.0  0.50620  0.66090  0.64000  1.0000
  C   C6        1.0  0.49380  0.33910  0.36000  1.0000
  C   C7        1.0  0.55080  0.58520  0.71620  1.0000
  C   C8        1.0  0.44920  0.41480  0.28380  1.0000
  H   H7        1.0  0.48670  0.49580  0.69800  1.0000
  H   H8        1.0  0.51330  0.50420  0.30200  1.0000
  H   H9        1.0  0.55030  0.63090  0.79330  1.0000
  H   H10       1.0  0.44970  0.36910  0.20670  1.0000
  H   H11       1.0  0.64530  0.57810  0.70840  1.0000
  H   H12       1.0  0.35470  0.42190  0.29160  1.0000
  C   C9        1.0  0.96550  0.81510  0.06510  1.0000
  C   C10       1.0  0.03450  0.18490  0.93490  1.0000
  C   C11       1.0  0.86660  0.80730  0.89270  1.0000
  C   C12       1.0  0.13340  0.19270  0.10730  1.0000
