data_image0
_chemical_formula_structural       Ag10O32N16C8H4C4H4C32H4C4H4C4H4C8H4C8H4C4H4C4H4C4H4C4H4C4H4C8H4C4H4C8H4C4H4C4H4C4H4
_chemical_formula_sum              "Ag10 O32 N16 C120 H72"
_cell_length_a       14.6049
_cell_length_b       17.4423
_cell_length_c       22.581
_cell_angle_alpha    90
_cell_angle_beta     107.2
_cell_angle_gamma    90

_space_group_name_H-M_alt    "P 1"
_space_group_IT_number       1

loop_
  _space_group_symop_operation_xyz
  'x, y, z'

loop_
  _atom_site_type_symbol
  _atom_site_label
  _atom_site_symmetry_multiplicity
  _atom_site_fract_x
  _atom_site_fract_y
  _atom_site_fract_z
  _atom_site_occupancy
  Ag  Ag1       1.0  0.60365  0.80739  0.20792  1.0000
  Ag  Ag2       1.0  0.39635  0.30739  0.29208  1.0000
  Ag  Ag3       1.0  0.39635  0.19261  0.79208  1.0000
  Ag  Ag4       1.0  0.60365  0.69261  0.70792  1.0000
  Ag  Ag5       1.0  0.34791  0.80451  0.11316  1.0000
  Ag  Ag6       1.0  0.65209  0.30451  0.38684  1.0000
  Ag  Ag7       1.0  0.65209  0.19549  0.88684  1.0000
  Ag  Ag8       1.0  0.34791  0.69549  0.61316  1.0000
  Ag  Ag9       1.0  0.50000  0.00000  0.00000  1.0000
  Ag  Ag10      1.0  0.50000  0.50000  0.50000  1.0000
  O   O1        1.0  0.64340  0.94740  0.21035  1.0000
  O   O2        1.0  0.35660  0.44740  0.28965  1.0000
  O   O3        1.0  0.35660  0.05260  0.78965  1.0000
  O   O4        1.0  0.64340  0.55260  0.71035  1.0000
  O   O5        1.0  0.68210  0.02170  0.29445  1.0000
  O   O6        1.0  0.31790  0.52170  0.20555  1.0000
  O   O7        1.0  0.31790  0.97830  0.70555  1.0000
  O   O8        1.0  0.68210  0.47830  0.79445  1.0000
  O   O9        1.0  0.45930  0.91170  0.10175  1.0000
  O   O10       1.0  0.54070  0.41170  0.39825  1.0000
  O   O11       1.0  0.54070  0.08830  0.89825  1.0000
  O   O12       1.0  0.45930  0.58830  0.60175  1.0000
  O   O13       1.0  0.51350  0.02982  0.09433  1.0000
  O   O14       1.0  0.48650  0.52982  0.40567  1.0000
  O   O15       1.0  0.48650  0.97018  0.90567  1.0000
  O   O16       1.0  0.51350  0.47018  0.59433  1.0000
  O   O17       1.0  0.23600  0.93250  0.10176  1.0000
  O   O18       1.0  0.76400  0.43250  0.39824  1.0000
  O   O19       1.0  0.76400  0.06750  0.89824  1.0000
  O   O20       1.0  0.23600  0.56750  0.60176  1.0000
  O   O21       1.0  0.28160  0.03840  0.06251  1.0000
  O   O22       1.0  0.71840  0.53840  0.43749  1.0000
  O   O23       1.0  0.71840  0.96160  0.93749  1.0000
  O   O24       1.0  0.28160  0.46160  0.56251  1.0000
  O   O25       1.0  0.18400  0.00460  0.25332  1.0000
  O   O26       1.0  0.81600  0.50460  0.24668  1.0000
  O   O27       1.0  0.81600  0.99540  0.74668  1.0000
  O   O28       1.0  0.18400  0.49540  0.75332  1.0000
  O   O29       1.0  0.16330  0.07700  0.16969  1.0000
  O   O30       1.0  0.83670  0.57700  0.33031  1.0000
  O   O31       1.0  0.83670  0.92300  0.83031  1.0000
  O   O32       1.0  0.16330  0.42300  0.66969  1.0000
  N   N1        1.0  0.60690  0.78540  0.30376  1.0000
  N   N2        1.0  0.39310  0.28540  0.19624  1.0000
  N   N3        1.0  0.39310  0.21460  0.69624  1.0000
  N   N4        1.0  0.60690  0.71460  0.80376  1.0000
  N   N5        1.0  0.60470  0.71810  0.61357  1.0000
  N   N6        1.0  0.39530  0.21810  0.88643  1.0000
  N   N7        1.0  0.39530  0.28190  0.38643  1.0000
  N   N8        1.0  0.60470  0.78190  0.11357  1.0000
  N   N9        1.0  0.35680  0.77880  0.20928  1.0000
  N   N10       1.0  0.64320  0.27880  0.29072  1.0000
  N   N11       1.0  0.64320  0.22120  0.79072  1.0000
  N   N12       1.0  0.35680  0.72120  0.70928  1.0000
  N   N13       1.0  0.33810  0.71950  0.51611  1.0000
  N   N14       1.0  0.66190  0.21950  0.98389  1.0000
  N   N15       1.0  0.66190  0.28050  0.48389  1.0000
  N   N16       1.0  0.33810  0.78050  0.01611  1.0000
  C   C1        1.0  0.51690  0.01180  0.23611  1.0000
  C   C2        1.0  0.48310  0.51180  0.26389  1.0000
  C   C3        1.0  0.48310  0.98820  0.76389  1.0000
  C   C4        1.0  0.51690  0.48820  0.73611  1.0000
  C   C5        1.0  0.48390  0.03300  0.28530  1.0000
  C   C6        1.0  0.51610  0.53300  0.21470  1.0000
  C   C7        1.0  0.51610  0.96700  0.71470  1.0000
  C   C8        1.0  0.48390  0.46700  0.78530  1.0000
  H   H1        1.0  0.52740  0.04200  0.32410  1.0000
  H   H2        1.0  0.47260  0.54200  0.17590  1.0000
  H   H3        1.0  0.47260  0.95800  0.67590  1.0000
  H   H4        1.0  0.52740  0.45800  0.82410  1.0000
  C   C9        1.0  0.38640  0.04110  0.27701  1.0000
  C   C10       1.0  0.61360  0.54110  0.22299  1.0000
  C   C11       1.0  0.61360  0.95890  0.72299  1.0000
  C   C12       1.0  0.38640  0.45890  0.77701  1.0000
  H   H5        1.0  0.36540  0.05370  0.31080  1.0000
  H   H6        1.0  0.63460  0.55370  0.18920  1.0000
  H   H7        1.0  0.63460  0.94630  0.68920  1.0000
  H   H8        1.0  0.36540  0.44630  0.81080  1.0000
  C   C13       1.0  0.32010  0.03090  0.21991  1.0000
  C   C14       1.0  0.67990  0.53090  0.28009  1.0000
  C   C15       1.0  0.67990  0.96910  0.78009  1.0000
  C   C16       1.0  0.32010  0.46910  0.71991  1.0000
  C   C17       1.0  0.35170  0.01220  0.16944  1.0000
  C   C18       1.0  0.64830  0.51220  0.33056  1.0000
  C   C19       1.0  0.64830  0.98780  0.83056  1.0000
  C   C20       1.0  0.35170  0.48780  0.66944  1.0000
  C   C21       1.0  0.45130  0.00220  0.17772  1.0000
  C   C22       1.0  0.54870  0.50220  0.32228  1.0000
  C   C23       1.0  0.54870  0.99780  0.82228  1.0000
  C   C24       1.0  0.45130  0.49780  0.67772  1.0000
  C   C25       1.0  0.62250  0.99280  0.24787  1.0000
  C   C26       1.0  0.37750  0.49280  0.25213  1.0000
  C   C27       1.0  0.37750  0.00720  0.75213  1.0000
  C   C28       1.0  0.62250  0.50720  0.74787  1.0000
  C   C29       1.0  0.47860  0.97820  0.12122  1.0000
  C   C30       1.0  0.52140  0.47820  0.37878  1.0000
  C   C31       1.0  0.52140  0.02180  0.87878  1.0000
  C   C32       1.0  0.47860  0.52180  0.62122  1.0000
  C   C33       1.0  0.28310  0.99400  0.10573  1.0000
  C   C34       1.0  0.71690  0.49400  0.39427  1.0000
  C   C35       1.0  0.71690  0.00600  0.89427  1.0000
  C   C36       1.0  0.28310  0.50600  0.60573  1.0000
  C   C37       1.0  0.21280  0.03710  0.21280  1.0000
  C   C38       1.0  0.78720  0.53710  0.28720  1.0000
  C   C39       1.0  0.78720  0.96290  0.78720  1.0000
  C   C40       1.0  0.21280  0.46290  0.71280  1.0000
  C   C41       1.0  0.33960  0.70950  0.22930  1.0000
  C   C42       1.0  0.66040  0.20950  0.27070  1.0000
  C   C43       1.0  0.66040  0.29050  0.77070  1.0000
  C   C44       1.0  0.33960  0.79050  0.72930  1.0000
  H   H9        1.0  0.33040  0.66840  0.20200  1.0000
  H   H10       1.0  0.66960  0.16840  0.29800  1.0000
  H   H11       1.0  0.66960  0.33160  0.79800  1.0000
  H   H12       1.0  0.33040  0.83160  0.70200  1.0000
  C   C45       1.0  0.37180  0.83610  0.25060  1.0000
  C   C46       1.0  0.62820  0.33610  0.24940  1.0000
  C   C47       1.0  0.62820  0.16390  0.74940  1.0000
  C   C48       1.0  0.37180  0.66390  0.75060  1.0000
  H   H13       1.0  0.38540  0.88460  0.23840  1.0000
  H   H14       1.0  0.61460  0.38460  0.26160  1.0000
  H   H15       1.0  0.61460  0.11540  0.76160  1.0000
  H   H16       1.0  0.38540  0.61540  0.73840  1.0000
  C   C49       1.0  0.36790  0.82690  0.30990  1.0000
  C   C50       1.0  0.63210  0.32690  0.19010  1.0000
  C   C51       1.0  0.63210  0.17310  0.69010  1.0000
  C   C52       1.0  0.36790  0.67310  0.80990  1.0000
  H   H17       1.0  0.37810  0.86880  0.33660  1.0000
  H   H18       1.0  0.62190  0.36880  0.16340  1.0000
  H   H19       1.0  0.62190  0.13120  0.66340  1.0000
  H   H20       1.0  0.37810  0.63120  0.83660  1.0000
  C   C53       1.0  0.34900  0.75560  0.33070  1.0000
  C   C54       1.0  0.65100  0.25560  0.16930  1.0000
  C   C55       1.0  0.65100  0.24440  0.66930  1.0000
  C   C56       1.0  0.34900  0.74440  0.83070  1.0000
  C   C57       1.0  0.33510  0.69650  0.28800  1.0000
  C   C58       1.0  0.66490  0.19650  0.21200  1.0000
  C   C59       1.0  0.66490  0.30350  0.71200  1.0000
  C   C60       1.0  0.33510  0.80350  0.78800  1.0000
  H   H21       1.0  0.32260  0.64730  0.29940  1.0000
  H   H22       1.0  0.67740  0.14730  0.20060  1.0000
  H   H23       1.0  0.67740  0.35270  0.70060  1.0000
  H   H24       1.0  0.32260  0.85270  0.79940  1.0000
  C   C61       1.0  0.34520  0.74310  0.39481  1.0000
  C   C62       1.0  0.65480  0.24310  0.10519  1.0000
  C   C63       1.0  0.65480  0.25690  0.60519  1.0000
  C   C64       1.0  0.34520  0.75690  0.89481  1.0000
  C   C65       1.0  0.33000  0.80340  0.43100  1.0000
  C   C66       1.0  0.67000  0.30340  0.06900  1.0000
  C   C67       1.0  0.67000  0.19660  0.56900  1.0000
  C   C68       1.0  0.33000  0.69660  0.93100  1.0000
  H   H25       1.0  0.32080  0.85280  0.41490  1.0000
  H   H26       1.0  0.67920  0.35280  0.08510  1.0000
  H   H27       1.0  0.67920  0.14720  0.58510  1.0000
  H   H28       1.0  0.32080  0.64720  0.91490  1.0000
  C   C69       1.0  0.32860  0.78960  0.49090  1.0000
  C   C70       1.0  0.67140  0.28960  0.00910  1.0000
  C   C71       1.0  0.67140  0.21040  0.50910  1.0000
  C   C72       1.0  0.32860  0.71040  0.99090  1.0000
  H   H29       1.0  0.32070  0.83100  0.51480  1.0000
  H   H30       1.0  0.67930  0.33100  0.98520  1.0000
  H   H31       1.0  0.67930  0.16900  0.48520  1.0000
  H   H32       1.0  0.32070  0.66900  0.01480  1.0000
  C   C73       1.0  0.34980  0.66230  0.48040  1.0000
  C   C74       1.0  0.65020  0.16230  0.01960  1.0000
  C   C75       1.0  0.65020  0.33770  0.51960  1.0000
  C   C76       1.0  0.34980  0.83770  0.98040  1.0000
  H   H33       1.0  0.35530  0.61300  0.49670  1.0000
  H   H34       1.0  0.64470  0.11300  0.00330  1.0000
  H   H35       1.0  0.64470  0.38700  0.50330  1.0000
  H   H36       1.0  0.35530  0.88700  0.99670  1.0000
  C   C77       1.0  0.35420  0.67110  0.42120  1.0000
  C   C78       1.0  0.64580  0.17110  0.07880  1.0000
  C   C79       1.0  0.64580  0.32890  0.57880  1.0000
  C   C80       1.0  0.35420  0.82890  0.92120  1.0000
  H   H37       1.0  0.36320  0.62850  0.39870  1.0000
  H   H38       1.0  0.63680  0.12850  0.10130  1.0000
  H   H39       1.0  0.63680  0.37150  0.60130  1.0000
  H   H40       1.0  0.36320  0.87150  0.89870  1.0000
  C   C81       1.0  0.59030  0.71520  0.32310  1.0000
  C   C82       1.0  0.40970  0.21520  0.17690  1.0000
  C   C83       1.0  0.40970  0.28480  0.67690  1.0000
  C   C84       1.0  0.59030  0.78480  0.82310  1.0000
  H   H41       1.0  0.57950  0.67500  0.29480  1.0000
  H   H42       1.0  0.42050  0.17500  0.20520  1.0000
  H   H43       1.0  0.42050  0.32500  0.70520  1.0000
  H   H44       1.0  0.57950  0.82500  0.79480  1.0000
  C   C85       1.0  0.58840  0.69990  0.38220  1.0000
  C   C86       1.0  0.41160  0.19990  0.11780  1.0000
  C   C87       1.0  0.41160  0.30010  0.61780  1.0000
  C   C88       1.0  0.58840  0.80010  0.88220  1.0000
  H   H45       1.0  0.57710  0.65010  0.39310  1.0000
  H   H46       1.0  0.42290  0.15010  0.10690  1.0000
  H   H47       1.0  0.42290  0.34990  0.60690  1.0000
  H   H48       1.0  0.57710  0.84990  0.89310  1.0000
  C   C89       1.0  0.60320  0.75800  0.42596  1.0000
  C   C90       1.0  0.39680  0.25800  0.07404  1.0000
  C   C91       1.0  0.39680  0.24200  0.57404  1.0000
  C   C92       1.0  0.60320  0.74200  0.92596  1.0000
  C   C93       1.0  0.62060  0.83030  0.40620  1.0000
  C   C94       1.0  0.37940  0.33030  0.09380  1.0000
  C   C95       1.0  0.37940  0.16970  0.59380  1.0000
  C   C96       1.0  0.62060  0.66970  0.90620  1.0000
  H   H49       1.0  0.63130  0.87150  0.43360  1.0000
  H   H50       1.0  0.36870  0.37150  0.06640  1.0000
  H   H51       1.0  0.36870  0.12850  0.56640  1.0000
  H   H52       1.0  0.63130  0.62850  0.93360  1.0000
  C   C97       1.0  0.62210  0.84140  0.34650  1.0000
  C   C98       1.0  0.37790  0.34140  0.15350  1.0000
  C   C99       1.0  0.37790  0.15860  0.65350  1.0000
  C   C100      1.0  0.62210  0.65860  0.84650  1.0000
  H   H53       1.0  0.63440  0.89050  0.33470  1.0000
  H   H54       1.0  0.36560  0.39050  0.16530  1.0000
  H   H55       1.0  0.36560  0.10950  0.66530  1.0000
  H   H56       1.0  0.63440  0.60950  0.83470  1.0000
  C   C101      1.0  0.60230  0.74360  0.49040  1.0000
  C   C102      1.0  0.39770  0.24360  0.00960  1.0000
  C   C103      1.0  0.39770  0.25640  0.50960  1.0000
  C   C104      1.0  0.60230  0.75640  0.99040  1.0000
  C   C105      1.0  0.62530  0.67290  0.51850  1.0000
  C   C106      1.0  0.37470  0.17290  0.98150  1.0000
  C   C107      1.0  0.37470  0.32710  0.48150  1.0000
  C   C108      1.0  0.62530  0.82710  0.01850  1.0000
  H   H57       1.0  0.64040  0.63230  0.49640  1.0000
  H   H58       1.0  0.35960  0.13230  0.00360  1.0000
  H   H59       1.0  0.35960  0.36770  0.50360  1.0000
  H   H60       1.0  0.64040  0.86770  0.99640  1.0000
  C   C109      1.0  0.62590  0.66230  0.57893  1.0000
  C   C110      1.0  0.37410  0.16230  0.92107  1.0000
  C   C111      1.0  0.37410  0.33770  0.42107  1.0000
  C   C112      1.0  0.62590  0.83770  0.07893  1.0000
  H   H61       1.0  0.64180  0.61420  0.59660  1.0000
  H   H62       1.0  0.35820  0.11420  0.90340  1.0000
  H   H63       1.0  0.35820  0.38580  0.40340  1.0000
  H   H64       1.0  0.64180  0.88580  0.09660  1.0000
  C   C113      1.0  0.58190  0.78640  0.58580  1.0000
  C   C114      1.0  0.41810  0.28640  0.91420  1.0000
  C   C115      1.0  0.41810  0.21360  0.41420  1.0000
  C   C116      1.0  0.58190  0.71360  0.08580  1.0000
  H   H65       1.0  0.56700  0.82600  0.60900  1.0000
  H   H66       1.0  0.43300  0.32600  0.89100  1.0000
  H   H67       1.0  0.43300  0.17400  0.39100  1.0000
  H   H68       1.0  0.56700  0.67400  0.10900  1.0000
  C   C117      1.0  0.57900  0.80160  0.52650  1.0000
  C   C118      1.0  0.42100  0.30160  0.97350  1.0000
  C   C119      1.0  0.42100  0.19840  0.47350  1.0000
  C   C120      1.0  0.57900  0.69840  0.02650  1.0000
  H   H69       1.0  0.56160  0.85000  0.50980  1.0000
  H   H70       1.0  0.43840  0.35000  0.99020  1.0000
  H   H71       1.0  0.43840  0.15000  0.49020  1.0000
  H   H72       1.0  0.56160  0.65000  0.00980  1.0000
