data_image0
_chemical_formula_structural       Mn4O20C4H4O4C4H4C4H4
_chemical_formula_sum              "Mn4 O24 C12 H12"
_cell_length_a       14.3644
_cell_length_b       8.318
_cell_length_c       8.8927
_cell_angle_alpha    90
_cell_angle_beta     120.75
_cell_angle_gamma    90

_space_group_name_H-M_alt    "P 1"
_space_group_IT_number       1

loop_
  _space_group_symop_operation_xyz
  'x, y, z'

loop_
  _atom_site_type_symbol
  _atom_site_label
  _atom_site_symmetry_multiplicity
  _atom_site_fract_x
  _atom_site_fract_y
  _atom_site_fract_z
  _atom_site_occupancy
  Mn  Mn1       1.0  0.00000  0.25159  0.00000  1.0000
  Mn  Mn2       1.0  0.00000  0.74841  0.50000  1.0000
  Mn  Mn3       1.0  0.50000  0.75159  0.00000  1.0000
  Mn  Mn4       1.0  0.50000  0.24841  0.50000  1.0000
  O   O1        1.0  0.15970  0.14510  0.16580  1.0000
  O   O2        1.0  0.15970  0.85490  0.66580  1.0000
  O   O3        1.0  0.65970  0.64510  0.16580  1.0000
  O   O4        1.0  0.65970  0.35490  0.66580  1.0000
  O   O5        1.0  0.04760  0.52100  0.63970  1.0000
  O   O6        1.0  0.04760  0.47900  0.13970  1.0000
  O   O7        1.0  0.54760  0.02100  0.63970  1.0000
  O   O8        1.0  0.54760  0.97900  0.13970  1.0000
  O   O9        1.0  0.04920  0.33730  0.82090  1.0000
  O   O10       1.0  0.04920  0.66270  0.32090  1.0000
  O   O11       1.0  0.54920  0.83730  0.82090  1.0000
  O   O12       1.0  0.54920  0.16270  0.32090  1.0000
  O   O13       1.0  0.94720  0.97280  0.35610  1.0000
  O   O14       1.0  0.94720  0.02720  0.85610  1.0000
  O   O15       1.0  0.44720  0.47280  0.35610  1.0000
  O   O16       1.0  0.44720  0.52720  0.85610  1.0000
  O   O17       1.0  0.94780  0.16140  0.17830  1.0000
  O   O18       1.0  0.94780  0.83860  0.67830  1.0000
  O   O19       1.0  0.44780  0.66140  0.17830  1.0000
  O   O20       1.0  0.44780  0.33860  0.67830  1.0000
  C   C1        1.0  0.24960  0.21310  0.25100  1.0000
  C   C2        1.0  0.24960  0.78690  0.75100  1.0000
  C   C3        1.0  0.74960  0.71310  0.25100  1.0000
  C   C4        1.0  0.74960  0.28690  0.75100  1.0000
  H   H1        1.0  0.25050  0.32730  0.25280  1.0000
  H   H2        1.0  0.25050  0.67270  0.75280  1.0000
  H   H3        1.0  0.75050  0.82730  0.25280  1.0000
  H   H4        1.0  0.75050  0.17270  0.75280  1.0000
  O   O21       1.0  0.33830  0.14210  0.33420  1.0000
  O   O22       1.0  0.33830  0.85790  0.83420  1.0000
  O   O23       1.0  0.83830  0.64210  0.33420  1.0000
  O   O24       1.0  0.83830  0.35790  0.83420  1.0000
  C   C5        1.0  0.03480  0.47430  0.75890  1.0000
  C   C6        1.0  0.03480  0.52570  0.25890  1.0000
  C   C7        1.0  0.53480  0.97430  0.75890  1.0000
  C   C8        1.0  0.53480  0.02570  0.25890  1.0000
  H   H5        1.0  0.01100  0.55280  0.80950  1.0000
  H   H6        1.0  0.01100  0.44720  0.30950  1.0000
  H   H7        1.0  0.51100  0.05280  0.80950  1.0000
  H   H8        1.0  0.51100  0.94720  0.30950  1.0000
  C   C9        1.0  0.97500  0.02720  0.25480  1.0000
  C   C10       1.0  0.97500  0.97280  0.75480  1.0000
  C   C11       1.0  0.47500  0.52720  0.25480  1.0000
  C   C12       1.0  0.47500  0.47280  0.75480  1.0000
  H   H9        1.0  0.02090  0.96160  0.23300  1.0000
  H   H10       1.0  0.02090  0.03840  0.73300  1.0000
  H   H11       1.0  0.52090  0.46160  0.23300  1.0000
  H   H12       1.0  0.52090  0.53840  0.73300  1.0000
