data_image0
_chemical_formula_structural       Mn6O36C18H18
_chemical_formula_sum              "Mn6 O36 C18 H18"
_cell_length_a       8.26613
_cell_length_b       8.26613
_cell_length_c       22.2627
_cell_angle_alpha    90
_cell_angle_beta     90
_cell_angle_gamma    120

_space_group_name_H-M_alt    "P 1"
_space_group_IT_number       1

loop_
  _space_group_symop_operation_xyz
  'x, y, z'

loop_
  _atom_site_type_symbol
  _atom_site_label
  _atom_site_symmetry_multiplicity
  _atom_site_fract_x
  _atom_site_fract_y
  _atom_site_fract_z
  _atom_site_occupancy
  Mn  Mn1       1.0  0.66667  0.33333  0.33333  1.0000
  Mn  Mn2       1.0  0.33333  0.66667  0.16667  1.0000
  Mn  Mn3       1.0  0.33334  0.66666  0.66666  1.0000
  Mn  Mn4       1.0  1.00000  0.00000  0.50000  1.0000
  Mn  Mn5       1.0  0.00000  1.00000  1.00000  1.0000
  Mn  Mn6       1.0  0.66666  0.33334  0.83334  1.0000
  O   O1        1.0  0.87330  0.31490  0.27832  1.0000
  O   O2        1.0  0.68510  0.55840  0.27832  1.0000
  O   O3        1.0  0.44160  0.12670  0.27832  1.0000
  O   O4        1.0  0.31490  0.87330  0.22168  1.0000
  O   O5        1.0  0.55840  0.68510  0.22168  1.0000
  O   O6        1.0  0.12670  0.44160  0.22168  1.0000
  O   O7        1.0  0.53997  0.64823  0.61165  1.0000
  O   O8        1.0  0.35177  0.89173  0.61165  1.0000
  O   O9        1.0  0.10827  0.46003  0.61165  1.0000
  O   O10       1.0  0.98157  0.20663  0.55501  1.0000
  O   O11       1.0  0.22507  0.01843  0.55501  1.0000
  O   O12       1.0  0.79337  0.77493  0.55501  1.0000
  O   O13       1.0  0.20663  0.98157  0.94499  1.0000
  O   O14       1.0  0.01843  0.22507  0.94499  1.0000
  O   O15       1.0  0.77493  0.79337  0.94499  1.0000
  O   O16       1.0  0.64823  0.53997  0.88835  1.0000
  O   O17       1.0  0.89173  0.35177  0.88835  1.0000
  O   O18       1.0  0.46003  0.10827  0.88835  1.0000
  O   O19       1.0  0.12670  0.68510  0.72168  1.0000
  O   O20       1.0  0.31490  0.44160  0.72168  1.0000
  O   O21       1.0  0.55840  0.87330  0.72168  1.0000
  O   O22       1.0  0.68510  0.12670  0.77832  1.0000
  O   O23       1.0  0.44160  0.31490  0.77832  1.0000
  O   O24       1.0  0.87330  0.55840  0.77832  1.0000
  O   O25       1.0  0.46003  0.35177  0.38835  1.0000
  O   O26       1.0  0.64823  0.10827  0.38835  1.0000
  O   O27       1.0  0.89173  0.53997  0.38835  1.0000
  O   O28       1.0  0.01843  0.79337  0.44499  1.0000
  O   O29       1.0  0.77493  0.98157  0.44499  1.0000
  O   O30       1.0  0.20663  0.22507  0.44499  1.0000
  O   O31       1.0  0.79337  0.01843  0.05501  1.0000
  O   O32       1.0  0.98157  0.77493  0.05501  1.0000
  O   O33       1.0  0.22507  0.20663  0.05501  1.0000
  O   O34       1.0  0.35177  0.46003  0.11165  1.0000
  O   O35       1.0  0.10827  0.64823  0.11165  1.0000
  O   O36       1.0  0.53997  0.89173  0.11165  1.0000
  C   C1        1.0  0.00000  0.44680  0.25000  1.0000
  C   C2        1.0  0.55320  0.55320  0.25000  1.0000
  C   C3        1.0  0.44680  0.00000  0.25000  1.0000
  C   C4        1.0  0.66667  0.78013  0.58333  1.0000
  C   C5        1.0  0.21987  0.88653  0.58333  1.0000
  C   C6        1.0  0.11347  0.33333  0.58333  1.0000
  C   C7        1.0  0.33333  0.11347  0.91667  1.0000
  C   C8        1.0  0.88653  0.21987  0.91667  1.0000
  C   C9        1.0  0.78013  0.66667  0.91667  1.0000
  C   C10       1.0  0.00000  0.55320  0.75000  1.0000
  C   C11       1.0  0.44680  0.44680  0.75000  1.0000
  C   C12       1.0  0.55320  0.00000  0.75000  1.0000
  C   C13       1.0  0.33333  0.21987  0.41667  1.0000
  C   C14       1.0  0.78013  0.11347  0.41667  1.0000
  C   C15       1.0  0.88653  0.66667  0.41667  1.0000
  C   C16       1.0  0.66667  0.88653  0.08333  1.0000
  C   C17       1.0  0.11347  0.78013  0.08333  1.0000
  C   C18       1.0  0.21987  0.33333  0.08333  1.0000
  H   H1        1.0  0.00000  0.55932  0.25000  1.0000
  H   H2        1.0  0.44068  0.44068  0.25000  1.0000
  H   H3        1.0  0.55932  0.00000  0.25000  1.0000
  H   H4        1.0  0.66667  0.89265  0.58333  1.0000
  H   H5        1.0  0.10735  0.77401  0.58333  1.0000
  H   H6        1.0  0.22599  0.33333  0.58333  1.0000
  H   H7        1.0  0.33333  0.22599  0.91667  1.0000
  H   H8        1.0  0.77401  0.10735  0.91667  1.0000
  H   H9        1.0  0.89265  0.66667  0.91667  1.0000
  H   H10       1.0  0.00000  0.44068  0.75000  1.0000
  H   H11       1.0  0.55932  0.55932  0.75000  1.0000
  H   H12       1.0  0.44068  0.00000  0.75000  1.0000
  H   H13       1.0  0.33333  0.10735  0.41667  1.0000
  H   H14       1.0  0.89265  0.22599  0.41667  1.0000
  H   H15       1.0  0.77401  0.66667  0.41667  1.0000
  H   H16       1.0  0.66667  0.77401  0.08333  1.0000
  H   H17       1.0  0.22599  0.89265  0.08333  1.0000
  H   H18       1.0  0.10735  0.33333  0.08333  1.0000
