data_image0
_chemical_formula_structural       C6H2C2H2C10H2C2H2C10H2C2H2C10H2C2H2C4O40Zn6
_chemical_formula_sum              "C48 H16 O40 Zn6"
_cell_length_a       12.7693
_cell_length_b       12.7842
_cell_length_c       14.7758
_cell_angle_alpha    85.019
_cell_angle_beta     65.87
_cell_angle_gamma    89.613

_space_group_name_H-M_alt    "P 1"
_space_group_IT_number       1

loop_
  _space_group_symop_operation_xyz
  'x, y, z'

loop_
  _atom_site_type_symbol
  _atom_site_label
  _atom_site_symmetry_multiplicity
  _atom_site_fract_x
  _atom_site_fract_y
  _atom_site_fract_z
  _atom_site_occupancy
  C   C1        1.0  0.26509  0.37997  0.06895  1.0000
  C   C2        1.0  0.73491  0.62003  0.93105  1.0000
  C   C3        1.0  0.19927  0.33185  0.17113  1.0000
  C   C4        1.0  0.80073  0.66815  0.82887  1.0000
  C   C5        1.0  0.18196  0.36203  0.26181  1.0000
  C   C6        1.0  0.81804  0.63797  0.73819  1.0000
  H   H1        1.0  0.21320  0.42150  0.27470  1.0000
  H   H2        1.0  0.78680  0.57850  0.72530  1.0000
  C   C7        1.0  0.10655  0.28451  0.33314  1.0000
  C   C8        1.0  0.89345  0.71549  0.66686  1.0000
  H   H3        1.0  0.07860  0.28330  0.40210  1.0000
  H   H4        1.0  0.92140  0.71670  0.59790  1.0000
  C   C9        1.0  0.08348  0.21286  0.28099  1.0000
  C   C10       1.0  0.91652  0.78714  0.71901  1.0000
  C   C11       1.0  0.00599  0.11849  0.31046  1.0000
  C   C12       1.0  0.99401  0.88151  0.68954  1.0000
  C   C13       1.0  0.11435  0.15325  0.58422  1.0000
  C   C14       1.0  0.88565  0.84675  0.41578  1.0000
  C   C15       1.0  0.09417  0.25005  0.63611  1.0000
  C   C16       1.0  0.90583  0.74995  0.36389  1.0000
  C   C17       1.0  0.00900  0.31970  0.65730  1.0000
  C   C18       1.0  0.99100  0.68030  0.34270  1.0000
  H   H5        1.0  0.94970  0.32110  0.63610  1.0000
  H   H6        1.0  0.05030  0.67890  0.36390  1.0000
  C   C19       1.0  0.02880  0.39057  0.71860  1.0000
  C   C20       1.0  0.97120  0.60943  0.28140  1.0000
  H   H7        1.0  0.98440  0.44720  0.74560  1.0000
  H   H8        1.0  0.01560  0.55280  0.25440  1.0000
  C   C21       1.0  0.12451  0.35936  0.72974  1.0000
  C   C22       1.0  0.87549  0.64064  0.27026  1.0000
  C   C23       1.0  0.18340  0.39754  0.78920  1.0000
  C   C24       1.0  0.81660  0.60246  0.21080  1.0000
  C   C25       1.0  0.76734  0.07116  0.63195  1.0000
  C   C26       1.0  0.23266  0.92884  0.36805  1.0000
  C   C27       1.0  0.73696  0.12619  0.72258  1.0000
  C   C28       1.0  0.26304  0.87381  0.27742  1.0000
  C   C29       1.0  0.77882  0.12111  0.79356  1.0000
  C   C30       1.0  0.22118  0.87889  0.20644  1.0000
  H   H9        1.0  0.83610  0.07790  0.79720  1.0000
  H   H10       1.0  0.16390  0.92210  0.20280  1.0000
  C   C31       1.0  0.71770  0.19508  0.86143  1.0000
  C   C32       1.0  0.28230  0.80492  0.13857  1.0000
  H   H11       1.0  0.72670  0.20980  0.91840  1.0000
  H   H12       1.0  0.27330  0.79020  0.08160  1.0000
  C   C33       1.0  0.64324  0.23999  0.82597  1.0000
  C   C34       1.0  0.35676  0.76001  0.17403  1.0000
  C   C35       1.0  0.55454  0.31947  0.86413  1.0000
  C   C36       1.0  0.44546  0.68053  0.13587  1.0000
  C   C37       1.0  0.45122  0.60590  0.82588  1.0000
  C   C38       1.0  0.54878  0.39410  0.17412  1.0000
  C   C39       1.0  0.47381  0.70450  0.76013  1.0000
  C   C40       1.0  0.52619  0.29550  0.23987  1.0000
  C   C41       1.0  0.56495  0.77308  0.71780  1.0000
  C   C42       1.0  0.43505  0.22692  0.28220  1.0000
  H   H13       1.0  0.63320  0.77030  0.72640  1.0000
  H   H14       1.0  0.36680  0.22970  0.27360  1.0000
  C   C43       1.0  0.53500  0.85010  0.65780  1.0000
  C   C44       1.0  0.46500  0.14990  0.34220  1.0000
  H   H15       1.0  0.58040  0.90710  0.61820  1.0000
  H   H16       1.0  0.41960  0.09290  0.38180  1.0000
  C   C45       1.0  0.42779  0.82417  0.66961  1.0000
  C   C46       1.0  0.57221  0.17583  0.33039  1.0000
  C   C47       1.0  0.34980  0.87344  0.62785  1.0000
  C   C48       1.0  0.65020  0.12656  0.37215  1.0000
  O   O1        1.0  0.25734  0.33340  0.99946  1.0000
  O   O2        1.0  0.74266  0.66660  0.00054  1.0000
  O   O3        1.0  0.32040  0.46396  0.05710  1.0000
  O   O4        1.0  0.67960  0.53604  0.94290  1.0000
  O   O5        1.0  0.13998  0.23971  0.18111  1.0000
  O   O6        1.0  0.86002  0.76029  0.81889  1.0000
  O   O7        1.0  0.99744  0.06644  0.24826  1.0000
  O   O8        1.0  0.00256  0.93356  0.75174  1.0000
  O   O9        1.0  0.94551  0.10176  0.40651  1.0000
  O   O10       1.0  0.05449  0.89824  0.59349  1.0000
  O   O11       1.0  0.20070  0.10081  0.58041  1.0000
  O   O12       1.0  0.79930  0.89919  0.41959  1.0000
  O   O13       1.0  0.04310  0.13244  0.55036  1.0000
  O   O14       1.0  0.95690  0.86756  0.44964  1.0000
  O   O15       1.0  0.16679  0.27278  0.67955  1.0000
  O   O16       1.0  0.83321  0.72722  0.32045  1.0000
  O   O17       1.0  0.14176  0.47030  0.84009  1.0000
  O   O18       1.0  0.85824  0.52970  0.15991  1.0000
  O   O19       1.0  0.27315  0.34896  0.78421  1.0000
  O   O20       1.0  0.72685  0.65104  0.21579  1.0000
  O   O21       1.0  0.71612  0.09677  0.57604  1.0000
  O   O22       1.0  0.28388  0.90323  0.42396  1.0000
  O   O23       1.0  0.84143  0.00296  0.61708  1.0000
  O   O24       1.0  0.15857  0.99704  0.38292  1.0000
  O   O25       1.0  0.65326  0.19904  0.74108  1.0000
  O   O26       1.0  0.34674  0.80096  0.25892  1.0000
  O   O27       1.0  0.49426  0.33907  0.81476  1.0000
  O   O28       1.0  0.50574  0.66093  0.18524  1.0000
  O   O29       1.0  0.54625  0.35773  0.94123  1.0000
  O   O30       1.0  0.45375  0.64227  0.05877  1.0000
  O   O31       1.0  0.36229  0.55381  0.83587  1.0000
  O   O32       1.0  0.63771  0.44619  0.16413  1.0000
  O   O33       1.0  0.51971  0.58240  0.86381  1.0000
  O   O34       1.0  0.48029  0.41760  0.13619  1.0000
  O   O35       1.0  0.38857  0.73469  0.73081  1.0000
  O   O36       1.0  0.61143  0.26531  0.26919  1.0000
  O   O37       1.0  0.25154  0.83810  0.65376  1.0000
  O   O38       1.0  0.74846  0.16190  0.34624  1.0000
  O   O39       1.0  0.38620  0.95238  0.56740  1.0000
  O   O40       1.0  0.61380  0.04762  0.43260  1.0000
  Zn  Zn1       1.0  0.34379  0.40272  0.86725  1.0000
  Zn  Zn2       1.0  0.65621  0.59728  0.13275  1.0000
  Zn  Zn3       1.0  0.78484  0.04873  0.44100  1.0000
  Zn  Zn4       1.0  0.21516  0.95127  0.55900  1.0000
  Zn  Zn5       1.0  0.50000  0.50000  0.00000  1.0000
  Zn  Zn6       1.0  0.00000  0.00000  0.50000  1.0000
