data_image0
_chemical_formula_structural       Zn4C4H4C8H4C8H4C16O28H8
_chemical_formula_sum              "Zn4 C36 H20 O28"
_cell_length_a       11.01
_cell_length_b       16.7104
_cell_length_c       11.7492
_cell_angle_alpha    90
_cell_angle_beta     98.735
_cell_angle_gamma    90

_space_group_name_H-M_alt    "P 1"
_space_group_IT_number       1

loop_
  _space_group_symop_operation_xyz
  'x, y, z'

loop_
  _atom_site_type_symbol
  _atom_site_label
  _atom_site_symmetry_multiplicity
  _atom_site_fract_x
  _atom_site_fract_y
  _atom_site_fract_z
  _atom_site_occupancy
  Zn  Zn1       1.0  0.81594  0.06368  0.47152  1.0000
  Zn  Zn2       1.0  0.68406  0.56368  0.02848  1.0000
  Zn  Zn3       1.0  0.18406  0.93632  0.52848  1.0000
  Zn  Zn4       1.0  0.31594  0.43632  0.97152  1.0000
  C   C1        1.0  0.34090  0.23030  0.71080  1.0000
  C   C2        1.0  0.15910  0.73030  0.78920  1.0000
  C   C3        1.0  0.65910  0.76970  0.28920  1.0000
  C   C4        1.0  0.84090  0.26970  0.21080  1.0000
  H   H1        1.0  0.26960  0.24430  0.73950  1.0000
  H   H2        1.0  0.23040  0.74430  0.76050  1.0000
  H   H3        1.0  0.73040  0.75570  0.26050  1.0000
  H   H4        1.0  0.76960  0.25570  0.23950  1.0000
  C   C5        1.0  0.44560  0.27897  0.73340  1.0000
  C   C6        1.0  0.05440  0.77897  0.76660  1.0000
  C   C7        1.0  0.55440  0.72103  0.26660  1.0000
  C   C8        1.0  0.94560  0.22103  0.23340  1.0000
  C   C9        1.0  0.55060  0.25890  0.68750  1.0000
  C   C10       1.0  0.94940  0.75890  0.81250  1.0000
  C   C11       1.0  0.44940  0.74110  0.31250  1.0000
  C   C12       1.0  0.05060  0.24110  0.18750  1.0000
  H   H5        1.0  0.61950  0.29180  0.70080  1.0000
  H   H6        1.0  0.88050  0.79180  0.79920  1.0000
  H   H7        1.0  0.38050  0.70820  0.29920  1.0000
  H   H8        1.0  0.11950  0.20820  0.20080  1.0000
  C   C13       1.0  0.55330  0.18974  0.62170  1.0000
  C   C14       1.0  0.94670  0.68974  0.87830  1.0000
  C   C15       1.0  0.44670  0.81026  0.37830  1.0000
  C   C16       1.0  0.05330  0.31026  0.12170  1.0000
  C   C17       1.0  0.44960  0.14092  0.60090  1.0000
  C   C18       1.0  0.05040  0.64092  0.89910  1.0000
  C   C19       1.0  0.55040  0.85908  0.39910  1.0000
  C   C20       1.0  0.94960  0.35908  0.10090  1.0000
  H   H9        1.0  0.45130  0.09470  0.55720  1.0000
  H   H10       1.0  0.04870  0.59470  0.94280  1.0000
  H   H11       1.0  0.54870  0.90530  0.44280  1.0000
  H   H12       1.0  0.95130  0.40530  0.05720  1.0000
  C   C21       1.0  0.34360  0.16123  0.64560  1.0000
  C   C22       1.0  0.15640  0.66123  0.85440  1.0000
  C   C23       1.0  0.65640  0.83877  0.35440  1.0000
  C   C24       1.0  0.84360  0.33877  0.14560  1.0000
  C   C25       1.0  0.66960  0.16510  0.57860  1.0000
  C   C26       1.0  0.83040  0.66510  0.92140  1.0000
  C   C27       1.0  0.33040  0.83490  0.42140  1.0000
  C   C28       1.0  0.16960  0.33490  0.07860  1.0000
  C   C29       1.0  0.23420  0.10630  0.62430  1.0000
  C   C30       1.0  0.26580  0.60630  0.87570  1.0000
  C   C31       1.0  0.76580  0.89370  0.37570  1.0000
  C   C32       1.0  0.73420  0.39370  0.12430  1.0000
  C   C33       1.0  0.44590  0.35079  0.81020  1.0000
  C   C34       1.0  0.05410  0.85079  0.68980  1.0000
  C   C35       1.0  0.55410  0.64921  0.18980  1.0000
  C   C36       1.0  0.94590  0.14921  0.31020  1.0000
  O   O1        1.0  0.66128  0.10231  0.51447  1.0000
  O   O2        1.0  0.83872  0.60231  0.98553  1.0000
  O   O3        1.0  0.33872  0.89769  0.48553  1.0000
  O   O4        1.0  0.16128  0.39769  0.01447  1.0000
  O   O5        1.0  0.76543  0.20334  0.60634  1.0000
  O   O6        1.0  0.73457  0.70334  0.89366  1.0000
  O   O7        1.0  0.23457  0.79666  0.39366  1.0000
  O   O8        1.0  0.26543  0.29666  0.10634  1.0000
  O   O9        1.0  0.25609  0.03682  0.59022  1.0000
  O   O10       1.0  0.24391  0.53682  0.90978  1.0000
  O   O11       1.0  0.74391  0.96318  0.40978  1.0000
  O   O12       1.0  0.75609  0.46318  0.09022  1.0000
  O   O13       1.0  0.13179  0.13137  0.64240  1.0000
  O   O14       1.0  0.36821  0.63137  0.85760  1.0000
  O   O15       1.0  0.86821  0.86863  0.35760  1.0000
  O   O16       1.0  0.63179  0.36863  0.14240  1.0000
  O   O17       1.0  0.35102  0.35984  0.85747  1.0000
  O   O18       1.0  0.14898  0.85984  0.64253  1.0000
  O   O19       1.0  0.64898  0.64016  0.14253  1.0000
  O   O20       1.0  0.85102  0.14016  0.35747  1.0000
  O   O21       1.0  0.53748  0.39521  0.82220  1.0000
  O   O22       1.0  0.96252  0.89521  0.67780  1.0000
  O   O23       1.0  0.46252  0.60479  0.17780  1.0000
  O   O24       1.0  0.03748  0.10479  0.32220  1.0000
  O   O25       1.0  0.93700  0.04142  0.60529  1.0000
  O   O26       1.0  0.56300  0.54142  0.89471  1.0000
  O   O27       1.0  0.06300  0.95858  0.39471  1.0000
  O   O28       1.0  0.43700  0.45858  0.10529  1.0000
  H   H13       1.0  0.94070  0.99300  0.61670  1.0000
  H   H14       1.0  0.55930  0.49300  0.88330  1.0000
  H   H15       1.0  0.05930  0.00700  0.38330  1.0000
  H   H16       1.0  0.44070  0.50700  0.11670  1.0000
  H   H17       1.0  0.00200  0.07200  0.61500  1.0000
  H   H18       1.0  0.49800  0.57200  0.88500  1.0000
  H   H19       1.0  0.99800  0.92800  0.38500  1.0000
  H   H20       1.0  0.50200  0.42800  0.11500  1.0000
