data_image0
_chemical_formula_structural       U2O14C8H2
_chemical_formula_sum              "U2 O14 C8 H2"
_cell_length_a       8.684
_cell_length_b       8.716
_cell_length_c       9.696
_cell_angle_alpha    63.545
_cell_angle_beta     79.93
_cell_angle_gamma    77.514

_space_group_name_H-M_alt    "P 1"
_space_group_IT_number       1

loop_
  _space_group_symop_operation_xyz
  'x, y, z'

loop_
  _atom_site_type_symbol
  _atom_site_label
  _atom_site_symmetry_multiplicity
  _atom_site_fract_x
  _atom_site_fract_y
  _atom_site_fract_z
  _atom_site_occupancy
  U   U1        1.0  0.53959  0.40884  0.21616  1.0000
  U   U2        1.0  0.46041  0.59116  0.78384  1.0000
  O   O1        1.0  0.33480  0.96480  0.94780  1.0000
  O   O2        1.0  0.66520  0.03520  0.05220  1.0000
  O   O3        1.0  0.52510  0.88140  0.66550  1.0000
  O   O4        1.0  0.47490  0.11860  0.33450  1.0000
  O   O5        1.0  0.37780  0.37110  0.74890  1.0000
  O   O6        1.0  0.62220  0.62890  0.25110  1.0000
  O   O7        1.0  0.58700  0.27720  0.47930  1.0000
  O   O8        1.0  0.41300  0.72280  0.52070  1.0000
  O   O9        1.0  0.33680  0.47770  0.26470  1.0000
  O   O10       1.0  0.66320  0.52230  0.73530  1.0000
  O   O11       1.0  0.52050  0.65340  0.97910  1.0000
  O   O12       1.0  0.47950  0.34660  0.02090  1.0000
  O   O13       1.0  0.74260  0.33830  0.16870  1.0000
  O   O14       1.0  0.25740  0.66170  0.83130  1.0000
  C   C1        1.0  0.51330  0.19260  0.60650  1.0000
  C   C2        1.0  0.48670  0.80740  0.39350  1.0000
  C   C3        1.0  0.42270  0.23410  0.72990  1.0000
  C   C4        1.0  0.57730  0.76590  0.27010  1.0000
  C   C5        1.0  0.40010  0.05110  0.82110  1.0000
  C   C6        1.0  0.59990  0.94890  0.17890  1.0000
  C   C7        1.0  0.48810  0.01340  0.69130  1.0000
  C   C8        1.0  0.51190  0.98660  0.30870  1.0000
  H   H1        1.0  0.44600  0.74600  0.98900  1.0000
  H   H2        1.0  0.55400  0.25400  0.01100  1.0000
