data_image0
_chemical_formula_structural       Sc4C24H8C8H8C16O40C4H4O8
_chemical_formula_sum              "Sc4 C52 H20 O48"
_cell_length_a       18.092
_cell_length_b       9.6251
_cell_length_c       12.5071
_cell_angle_alpha    90
_cell_angle_beta     98.071
_cell_angle_gamma    90

_space_group_name_H-M_alt    "P 1"
_space_group_IT_number       1

loop_
  _space_group_symop_operation_xyz
  'x, y, z'

loop_
  _atom_site_type_symbol
  _atom_site_label
  _atom_site_symmetry_multiplicity
  _atom_site_fract_x
  _atom_site_fract_y
  _atom_site_fract_z
  _atom_site_occupancy
  Sc  Sc1       1.0  0.50000  0.00000  0.50000  1.0000
  Sc  Sc2       1.0  0.50000  0.00000  0.00000  1.0000
  Sc  Sc3       1.0  0.00000  0.50000  0.50000  1.0000
  Sc  Sc4       1.0  0.00000  0.50000  0.00000  1.0000
  C   C1        1.0  0.60356  0.73972  0.54077  1.0000
  C   C2        1.0  0.39644  0.73972  0.95923  1.0000
  C   C3        1.0  0.10356  0.23972  0.54077  1.0000
  C   C4        1.0  0.89644  0.23972  0.95923  1.0000
  C   C5        1.0  0.39644  0.26028  0.45923  1.0000
  C   C6        1.0  0.60356  0.26028  0.04077  1.0000
  C   C7        1.0  0.89644  0.76028  0.45923  1.0000
  C   C8        1.0  0.10356  0.76028  0.04077  1.0000
  C   C9        1.0  0.59422  0.59506  0.49991  1.0000
  C   C10       1.0  0.40578  0.59506  0.00009  1.0000
  C   C11       1.0  0.09422  0.09506  0.49991  1.0000
  C   C12       1.0  0.90578  0.09506  0.00009  1.0000
  C   C13       1.0  0.40578  0.40494  0.50009  1.0000
  C   C14       1.0  0.59422  0.40494  0.99991  1.0000
  C   C15       1.0  0.90578  0.90494  0.50009  1.0000
  C   C16       1.0  0.09422  0.90494  0.99991  1.0000
  C   C17       1.0  0.57070  0.53923  0.40142  1.0000
  C   C18       1.0  0.42930  0.53923  0.09858  1.0000
  C   C19       1.0  0.07070  0.03923  0.40142  1.0000
  C   C20       1.0  0.92930  0.03923  0.09858  1.0000
  C   C21       1.0  0.42930  0.46077  0.59858  1.0000
  C   C22       1.0  0.57070  0.46077  0.90142  1.0000
  C   C23       1.0  0.92930  0.96077  0.59858  1.0000
  C   C24       1.0  0.07070  0.96077  0.90142  1.0000
  H   H1        1.0  0.55556  0.58837  0.33614  1.0000
  H   H2        1.0  0.44444  0.58837  0.16386  1.0000
  H   H3        1.0  0.05556  0.08837  0.33614  1.0000
  H   H4        1.0  0.94444  0.08837  0.16386  1.0000
  H   H5        1.0  0.44444  0.41163  0.66386  1.0000
  H   H6        1.0  0.55556  0.41163  0.83614  1.0000
  H   H7        1.0  0.94444  0.91163  0.66386  1.0000
  H   H8        1.0  0.05556  0.91163  0.83614  1.0000
  C   C25       1.0  0.57320  0.39312  0.41518  1.0000
  C   C26       1.0  0.42680  0.39312  0.08482  1.0000
  C   C27       1.0  0.07320  0.89312  0.41518  1.0000
  C   C28       1.0  0.92680  0.89312  0.08482  1.0000
  C   C29       1.0  0.42680  0.60688  0.58482  1.0000
  C   C30       1.0  0.57320  0.60688  0.91518  1.0000
  C   C31       1.0  0.92680  0.10688  0.58482  1.0000
  C   C32       1.0  0.07320  0.10688  0.91518  1.0000
  H   H9        1.0  0.56041  0.32491  0.36082  1.0000
  H   H10       1.0  0.43959  0.32491  0.13918  1.0000
  H   H11       1.0  0.06041  0.82491  0.36082  1.0000
  H   H12       1.0  0.93959  0.82491  0.13918  1.0000
  H   H13       1.0  0.43959  0.67509  0.63918  1.0000
  H   H14       1.0  0.56041  0.67509  0.86082  1.0000
  H   H15       1.0  0.93959  0.17509  0.63918  1.0000
  H   H16       1.0  0.06041  0.17509  0.86082  1.0000
  C   C33       1.0  0.59746  0.36980  0.52139  1.0000
  C   C34       1.0  0.40254  0.36980  0.97861  1.0000
  C   C35       1.0  0.09746  0.86980  0.52139  1.0000
  C   C36       1.0  0.90254  0.86980  0.97861  1.0000
  C   C37       1.0  0.40254  0.63020  0.47861  1.0000
  C   C38       1.0  0.59746  0.63020  0.02139  1.0000
  C   C39       1.0  0.90254  0.13020  0.47861  1.0000
  C   C40       1.0  0.09746  0.13020  0.02139  1.0000
  C   C41       1.0  0.60693  0.24320  0.58816  1.0000
  C   C42       1.0  0.39307  0.24320  0.91184  1.0000
  C   C43       1.0  0.10693  0.74320  0.58816  1.0000
  C   C44       1.0  0.89307  0.74320  0.91184  1.0000
  C   C45       1.0  0.39307  0.75680  0.41184  1.0000
  C   C46       1.0  0.60693  0.75680  0.08816  1.0000
  C   C47       1.0  0.89307  0.25680  0.41184  1.0000
  C   C48       1.0  0.10693  0.25680  0.08816  1.0000
  O   O1        1.0  0.56849  0.83187  0.47938  1.0000
  O   O2        1.0  0.43151  0.83187  0.02062  1.0000
  O   O3        1.0  0.06849  0.33187  0.47938  1.0000
  O   O4        1.0  0.93151  0.33187  0.02062  1.0000
  O   O5        1.0  0.43151  0.16813  0.52062  1.0000
  O   O6        1.0  0.56849  0.16813  0.97938  1.0000
  O   O7        1.0  0.93151  0.66813  0.52062  1.0000
  O   O8        1.0  0.06849  0.66813  0.97938  1.0000
  O   O9        1.0  0.64255  0.76043  0.62820  1.0000
  O   O10       1.0  0.35745  0.76043  0.87180  1.0000
  O   O11       1.0  0.14255  0.26043  0.62820  1.0000
  O   O12       1.0  0.85745  0.26043  0.87180  1.0000
  O   O13       1.0  0.35745  0.23957  0.37180  1.0000
  O   O14       1.0  0.64255  0.23957  0.12820  1.0000
  O   O15       1.0  0.85745  0.73957  0.37180  1.0000
  O   O16       1.0  0.14255  0.73957  0.12820  1.0000
  O   O17       1.0  0.59184  0.12828  0.53776  1.0000
  O   O18       1.0  0.40816  0.12828  0.96224  1.0000
  O   O19       1.0  0.09184  0.62828  0.53776  1.0000
  O   O20       1.0  0.90816  0.62828  0.96224  1.0000
  O   O21       1.0  0.40816  0.87172  0.46224  1.0000
  O   O22       1.0  0.59184  0.87172  0.03776  1.0000
  O   O23       1.0  0.90816  0.37172  0.46224  1.0000
  O   O24       1.0  0.09184  0.37172  0.03776  1.0000
  O   O25       1.0  0.62886  0.25184  0.68631  1.0000
  O   O26       1.0  0.37114  0.25184  0.81369  1.0000
  O   O27       1.0  0.12886  0.75184  0.68631  1.0000
  O   O28       1.0  0.87114  0.75184  0.81369  1.0000
  O   O29       1.0  0.37114  0.74816  0.31369  1.0000
  O   O30       1.0  0.62886  0.74816  0.18631  1.0000
  O   O31       1.0  0.87114  0.24816  0.31369  1.0000
  O   O32       1.0  0.12886  0.24816  0.18631  1.0000
  O   O33       1.0  0.61171  0.49285  0.57474  1.0000
  O   O34       1.0  0.38829  0.49285  0.92526  1.0000
  O   O35       1.0  0.11171  0.99285  0.57474  1.0000
  O   O36       1.0  0.88829  0.99285  0.92526  1.0000
  O   O37       1.0  0.38829  0.50715  0.42526  1.0000
  O   O38       1.0  0.61171  0.50715  0.07474  1.0000
  O   O39       1.0  0.88829  0.00715  0.42526  1.0000
  O   O40       1.0  0.11171  0.00715  0.07474  1.0000
  C   C49       1.0  0.50000  0.00660  0.75000  1.0000
  C   C50       1.0  0.00000  0.50660  0.75000  1.0000
  C   C51       1.0  0.50000  0.99340  0.25000  1.0000
  C   C52       1.0  0.00000  0.49340  0.25000  1.0000
  H   H17       1.0  0.50000  0.10535  0.75000  1.0000
  H   H18       1.0  0.00000  0.60535  0.75000  1.0000
  H   H19       1.0  0.50000  0.89465  0.25000  1.0000
  H   H20       1.0  0.00000  0.39465  0.25000  1.0000
  O   O41       1.0  0.50027  0.94751  0.66252  1.0000
  O   O42       1.0  0.49973  0.94751  0.83748  1.0000
  O   O43       1.0  0.00027  0.44751  0.66252  1.0000
  O   O44       1.0  0.99973  0.44751  0.83748  1.0000
  O   O45       1.0  0.49973  0.05249  0.33748  1.0000
  O   O46       1.0  0.50027  0.05249  0.16252  1.0000
  O   O47       1.0  0.99973  0.55249  0.33748  1.0000
  O   O48       1.0  0.00027  0.55249  0.16252  1.0000
