data_image0
_chemical_formula_structural       Mo8O26N2C2H2C2H2C4H2C2H2C2H4
_chemical_formula_sum              "Mo8 O26 N2 C12 H12"
_cell_length_a       10.716
_cell_length_b       11.128
_cell_length_c       11.666
_cell_angle_alpha    68.08
_cell_angle_beta     85.5
_cell_angle_gamma    76.19

_space_group_name_H-M_alt    "P 1"
_space_group_IT_number       1

loop_
  _space_group_symop_operation_xyz
  'x, y, z'

loop_
  _atom_site_type_symbol
  _atom_site_label
  _atom_site_symmetry_multiplicity
  _atom_site_fract_x
  _atom_site_fract_y
  _atom_site_fract_z
  _atom_site_occupancy
  Mo  Mo1       1.0  0.33357  0.49479  0.21937  1.0000
  Mo  Mo2       1.0  0.66643  0.50521  0.78063  1.0000
  Mo  Mo3       1.0  0.34341  0.76693  0.25852  1.0000
  Mo  Mo4       1.0  0.65659  0.23307  0.74148  1.0000
  Mo  Mo5       1.0  0.34684  0.47605  0.51356  1.0000
  Mo  Mo6       1.0  0.65316  0.52395  0.48644  1.0000
  Mo  Mo7       1.0  0.57841  0.24401  0.47473  1.0000
  Mo  Mo8       1.0  0.42159  0.75599  0.52527  1.0000
  O   O1        1.0  0.19620  0.57340  0.13250  1.0000
  O   O2        1.0  0.80380  0.42660  0.86750  1.0000
  O   O3        1.0  0.41940  0.39450  0.14810  1.0000
  O   O4        1.0  0.58060  0.60550  0.85190  1.0000
  O   O5        1.0  0.43800  0.38450  0.38490  1.0000
  O   O6        1.0  0.56200  0.61550  0.61510  1.0000
  O   O7        1.0  0.42060  0.63420  0.17930  1.0000
  O   O8        1.0  0.57940  0.36580  0.82070  1.0000
  O   O9        1.0  0.20770  0.84680  0.17030  1.0000
  O   O10       1.0  0.79230  0.15320  0.82970  1.0000
  O   O11       1.0  0.45100  0.86470  0.19430  1.0000
  O   O12       1.0  0.54900  0.13530  0.80570  1.0000
  O   O13       1.0  0.29130  0.81330  0.39870  1.0000
  O   O14       1.0  0.70870  0.18670  0.60130  1.0000
  O   O15       1.0  0.26480  0.58570  0.36040  1.0000
  O   O16       1.0  0.73520  0.41430  0.63960  1.0000
  O   O17       1.0  0.24860  0.37030  0.58110  1.0000
  O   O18       1.0  0.75140  0.62970  0.41890  1.0000
  O   O19       1.0  0.48560  0.62630  0.41420  1.0000
  O   O20       1.0  0.51440  0.37370  0.58580  1.0000
  O   O21       1.0  0.66210  0.19290  0.36490  1.0000
  O   O22       1.0  0.33790  0.80710  0.63510  1.0000
  O   O23       1.0  0.49300  0.12530  0.55110  1.0000
  O   O24       1.0  0.50700  0.87470  0.44890  1.0000
  O   O25       1.0  0.31580  0.58320  0.59550  1.0000
  O   O26       1.0  0.68420  0.41680  0.40450  1.0000
  N   N1        1.0  0.21490  0.34500  0.32310  1.0000
  N   N2        1.0  0.78510  0.65500  0.67690  1.0000
  C   C1        1.0  0.09340  0.38390  0.35530  1.0000
  C   C2        1.0  0.90660  0.61610  0.64470  1.0000
  H   H1        1.0  0.06060  0.47360  0.34120  1.0000
  H   H2        1.0  0.93940  0.52640  0.65880  1.0000
  C   C3        1.0  0.01610  0.29700  0.40800  1.0000
  C   C4        1.0  0.98390  0.70300  0.59200  1.0000
  H   H3        1.0  0.93160  0.32860  0.42650  1.0000
  H   H4        1.0  0.06840  0.67140  0.57350  1.0000
  C   C5        1.0  0.06190  0.16250  0.43410  1.0000
  C   C6        1.0  0.93810  0.83750  0.56590  1.0000
  C   C7        1.0  0.18970  0.12280  0.40400  1.0000
  C   C8        1.0  0.81030  0.87720  0.59600  1.0000
  H   H5        1.0  0.22620  0.03320  0.42090  1.0000
  H   H6        1.0  0.77380  0.96680  0.57910  1.0000
  C   C9        1.0  0.26180  0.21600  0.34940  1.0000
  C   C10       1.0  0.73820  0.78400  0.65060  1.0000
  H   H7        1.0  0.34690  0.18750  0.33020  1.0000
  H   H8        1.0  0.65310  0.81250  0.66980  1.0000
  C   C11       1.0  0.97460  0.06970  0.48680  1.0000
  C   C12       1.0  0.02540  0.93030  0.51320  1.0000
  H   H9        1.0  0.94020  0.07990  0.56290  1.0000
  H   H10       1.0  0.05980  0.92010  0.43710  1.0000
  H   H11       1.0  0.90270  0.09860  0.42970  1.0000
  H   H12       1.0  0.09730  0.90140  0.57030  1.0000
