data_image0
_chemical_formula_structural       C20H4C20H4O32Cu4
_chemical_formula_sum              "C40 H8 O32 Cu4"
_cell_length_a       11.7356
_cell_length_b       17.402
_cell_length_c       11.7253
_cell_angle_alpha    90
_cell_angle_beta     105.147
_cell_angle_gamma    90

_space_group_name_H-M_alt    "P 1"
_space_group_IT_number       1

loop_
  _space_group_symop_operation_xyz
  'x, y, z'

loop_
  _atom_site_type_symbol
  _atom_site_label
  _atom_site_symmetry_multiplicity
  _atom_site_fract_x
  _atom_site_fract_y
  _atom_site_fract_z
  _atom_site_occupancy
  C   C1        1.0  0.59900  0.86320  0.36580  1.0000
  C   C2        1.0  0.40100  0.36320  0.13420  1.0000
  C   C3        1.0  0.40100  0.13680  0.63420  1.0000
  C   C4        1.0  0.59900  0.63680  0.86580  1.0000
  C   C5        1.0  0.58650  0.93320  0.29000  1.0000
  C   C6        1.0  0.41350  0.43320  0.21000  1.0000
  C   C7        1.0  0.41350  0.06680  0.71000  1.0000
  C   C8        1.0  0.58650  0.56680  0.79000  1.0000
  C   C9        1.0  0.62880  0.93740  0.18910  1.0000
  C   C10       1.0  0.37120  0.43740  0.31090  1.0000
  C   C11       1.0  0.37120  0.06260  0.81090  1.0000
  C   C12       1.0  0.62880  0.56260  0.68910  1.0000
  C   C13       1.0  0.67370  0.86770  0.13880  1.0000
  C   C14       1.0  0.32630  0.36770  0.36120  1.0000
  C   C15       1.0  0.32630  0.13230  0.86120  1.0000
  C   C16       1.0  0.67370  0.63230  0.63880  1.0000
  C   C17       1.0  0.62160  0.00720  0.12920  1.0000
  C   C18       1.0  0.37840  0.50720  0.37080  1.0000
  C   C19       1.0  0.37840  0.99280  0.87080  1.0000
  C   C20       1.0  0.62160  0.49280  0.62920  1.0000
  H   H1        1.0  0.64700  0.01200  0.06400  1.0000
  H   H2        1.0  0.35300  0.51200  0.43600  1.0000
  H   H3        1.0  0.35300  0.98800  0.93600  1.0000
  H   H4        1.0  0.64700  0.48800  0.56400  1.0000
  C   C21       1.0  0.57590  0.07250  0.16900  1.0000
  C   C22       1.0  0.42410  0.57250  0.33100  1.0000
  C   C23       1.0  0.42410  0.92750  0.83100  1.0000
  C   C24       1.0  0.57590  0.42750  0.66900  1.0000
  C   C25       1.0  0.56070  0.14530  0.09730  1.0000
  C   C26       1.0  0.43930  0.64530  0.40270  1.0000
  C   C27       1.0  0.43930  0.85470  0.90270  1.0000
  C   C28       1.0  0.56070  0.35470  0.59730  1.0000
  C   C29       1.0  0.53810  0.06880  0.27280  1.0000
  C   C30       1.0  0.46190  0.56880  0.22720  1.0000
  C   C31       1.0  0.46190  0.93120  0.72720  1.0000
  C   C32       1.0  0.53810  0.43120  0.77280  1.0000
  C   C33       1.0  0.51370  0.13980  0.33460  1.0000
  C   C34       1.0  0.48630  0.63980  0.16540  1.0000
  C   C35       1.0  0.48630  0.86020  0.66540  1.0000
  C   C36       1.0  0.51370  0.36020  0.83460  1.0000
  C   C37       1.0  0.54170  0.99920  0.33060  1.0000
  C   C38       1.0  0.45830  0.49920  0.16940  1.0000
  C   C39       1.0  0.45830  0.00080  0.66940  1.0000
  C   C40       1.0  0.54170  0.50080  0.83060  1.0000
  H   H5        1.0  0.51200  0.99600  0.39800  1.0000
  H   H6        1.0  0.48800  0.49600  0.10200  1.0000
  H   H7        1.0  0.48800  0.00400  0.60200  1.0000
  H   H8        1.0  0.51200  0.50400  0.89800  1.0000
  O   O1        1.0  0.50810  0.84190  0.39730  1.0000
  O   O2        1.0  0.49190  0.34190  0.10270  1.0000
  O   O3        1.0  0.49190  0.15810  0.60270  1.0000
  O   O4        1.0  0.50810  0.65810  0.89730  1.0000
  O   O5        1.0  0.69800  0.83313  0.40270  1.0000
  O   O6        1.0  0.30200  0.33313  0.09730  1.0000
  O   O7        1.0  0.30200  0.16687  0.59730  1.0000
  O   O8        1.0  0.69800  0.66687  0.90270  1.0000
  O   O9        1.0  0.62280  0.80471  0.15050  1.0000
  O   O10       1.0  0.37720  0.30471  0.34950  1.0000
  O   O11       1.0  0.37720  0.19529  0.84950  1.0000
  O   O12       1.0  0.62280  0.69529  0.65050  1.0000
  O   O13       1.0  0.75320  0.87570  0.08850  1.0000
  O   O14       1.0  0.24680  0.37570  0.41150  1.0000
  O   O15       1.0  0.24680  0.12430  0.91150  1.0000
  O   O16       1.0  0.75320  0.62430  0.58850  1.0000
  O   O17       1.0  0.63620  0.16480  0.04800  1.0000
  O   O18       1.0  0.36380  0.66480  0.45200  1.0000
  O   O19       1.0  0.36380  0.83520  0.95200  1.0000
  O   O20       1.0  0.63620  0.33520  0.54800  1.0000
  O   O21       1.0  0.46690  0.18299  0.09260  1.0000
  O   O22       1.0  0.53310  0.68299  0.40740  1.0000
  O   O23       1.0  0.53310  0.81701  0.90740  1.0000
  O   O24       1.0  0.46690  0.31701  0.59260  1.0000
  O   O25       1.0  0.41400  0.14419  0.36210  1.0000
  O   O26       1.0  0.58600  0.64419  0.13790  1.0000
  O   O27       1.0  0.58600  0.85581  0.63790  1.0000
  O   O28       1.0  0.41400  0.35581  0.86210  1.0000
  O   O29       1.0  0.59140  0.18893  0.36410  1.0000
  O   O30       1.0  0.40860  0.68893  0.13590  1.0000
  O   O31       1.0  0.40860  0.81107  0.63590  1.0000
  O   O32       1.0  0.59140  0.31107  0.86410  1.0000
  Cu  Cu1       1.0  0.56021  0.76634  0.52423  1.0000
  Cu  Cu2       1.0  0.43979  0.26634  0.97577  1.0000
  Cu  Cu3       1.0  0.43979  0.23366  0.47577  1.0000
  Cu  Cu4       1.0  0.56021  0.73366  0.02423  1.0000
