data_image0
_chemical_formula_structural       Gd2O2N2C2Gd2O2N2C2H2Sr2C2H2N2O2C2H2N2O2N2C2O2C2N2O2C2O2C2O2C2H2O2C2H2O2C2H2O4C4O2C2O2C2O2C2H2O2C2H2O4C2H2O2C4O2C2O2C2O2C2H2O4C2H2O2H4C2H2C2O2H4C2O2H4C2O2H4C2O2H4C2H2C2H2C2H2C10H2C2H2C2H2C6
_chemical_formula_sum              "Gd4 O58 N12 C84 H56 Sr2"
_cell_length_a       10.391
_cell_length_b       11.05
_cell_length_c       30.378
_cell_angle_alpha    88.423
_cell_angle_beta     87.529
_cell_angle_gamma    79.069

_space_group_name_H-M_alt    "P 1"
_space_group_IT_number       1

loop_
  _space_group_symop_operation_xyz
  'x, y, z'

loop_
  _atom_site_type_symbol
  _atom_site_label
  _atom_site_symmetry_multiplicity
  _atom_site_fract_x
  _atom_site_fract_y
  _atom_site_fract_z
  _atom_site_occupancy
  Gd  Gd1       1.0  0.05821  0.15525  0.12703  1.0000
  Gd  Gd2       1.0  0.94179  0.84475  0.87297  1.0000
  O   O1        1.0  0.97030  0.00900  0.17580  1.0000
  O   O2        1.0  0.02970  0.99100  0.82420  1.0000
  N   N1        1.0  0.82190  0.14000  0.11716  1.0000
  N   N2        1.0  0.17810  0.86000  0.88284  1.0000
  C   C1        1.0  0.76710  0.05920  0.14154  1.0000
  C   C2        1.0  0.23290  0.94080  0.85846  1.0000
  Gd  Gd3       1.0  0.63137  0.45877  0.35296  1.0000
  Gd  Gd4       1.0  0.36863  0.54123  0.64704  1.0000
  O   O3        1.0  0.80710  0.91810  0.20149  1.0000
  O   O4        1.0  0.19290  0.08190  0.79851  1.0000
  N   N3        1.0  0.20400  0.15850  0.05861  1.0000
  N   N4        1.0  0.79600  0.84150  0.94139  1.0000
  C   C3        1.0  0.63930  0.04600  0.13666  1.0000
  C   C4        1.0  0.36070  0.95400  0.86334  1.0000
  H   H1        1.0  0.60300  0.98900  0.15380  1.0000
  H   H2        1.0  0.39700  0.01100  0.84620  1.0000
  Sr  Sr1       1.0  0.77390  0.93226  0.28653  1.0000
  Sr  Sr2       1.0  0.22610  0.06774  0.71347  1.0000
  C   C5        1.0  0.56590  0.12010  0.10548  1.0000
  C   C6        1.0  0.43410  0.87990  0.89452  1.0000
  H   H3        1.0  0.48040  0.11130  0.10070  1.0000
  H   H4        1.0  0.51960  0.88870  0.89930  1.0000
  N   N5        1.0  0.13720  0.17010  0.20363  1.0000
  N   N6        1.0  0.86280  0.82990  0.79637  1.0000
  O   O5        1.0  0.93860  0.29850  0.07339  1.0000
  O   O6        1.0  0.06140  0.70150  0.92661  1.0000
  C   C7        1.0  0.62070  0.20580  0.08194  1.0000
  C   C8        1.0  0.37930  0.79420  0.91806  1.0000
  H   H5        1.0  0.57150  0.25930  0.06210  1.0000
  H   H6        1.0  0.42850  0.74070  0.93790  1.0000
  N   N7        1.0  0.86980  0.47090  0.35381  1.0000
  N   N8        1.0  0.13020  0.52910  0.64619  1.0000
  O   O7        1.0  0.75820  0.37880  0.03814  1.0000
  O   O8        1.0  0.24180  0.62120  0.96186  1.0000
  N   N9        1.0  0.47670  0.48870  0.41966  1.0000
  N   N10       1.0  0.52330  0.51130  0.58034  1.0000
  C   C9        1.0  0.74950  0.21190  0.08794  1.0000
  C   C10       1.0  0.25050  0.78810  0.91206  1.0000
  O   O9        1.0  0.06440  0.98730  0.07711  1.0000
  O   O10       1.0  0.93560  0.01270  0.92289  1.0000
  C   C11       1.0  0.85390  0.98910  0.17591  1.0000
  C   C12       1.0  0.14610  0.01090  0.82409  1.0000
  N   N11       1.0  0.53510  0.42120  0.28176  1.0000
  N   N12       1.0  0.46490  0.57880  0.71824  1.0000
  O   O11       1.0  0.13660  0.88790  0.01536  1.0000
  O   O12       1.0  0.86340  0.11210  0.98464  1.0000
  C   C13       1.0  0.81990  0.30370  0.06365  1.0000
  C   C14       1.0  0.18010  0.69630  0.93635  1.0000
  O   O13       1.0  0.18470  0.32160  0.12017  1.0000
  O   O14       1.0  0.81530  0.67840  0.87983  1.0000
  C   C15       1.0  0.20830  0.07150  0.02855  1.0000
  C   C16       1.0  0.79170  0.92850  0.97145  1.0000
  O   O15       1.0  0.32150  0.42430  0.08404  1.0000
  O   O16       1.0  0.67850  0.57570  0.91596  1.0000
  C   C17       1.0  0.28060  0.07390  0.98927  1.0000
  C   C18       1.0  0.71940  0.92610  0.01073  1.0000
  H   H7        1.0  0.28250  0.01300  0.96860  1.0000
  H   H8        1.0  0.71750  0.98700  0.03140  1.0000
  O   O17       1.0  0.26220  0.01780  0.14617  1.0000
  O   O18       1.0  0.73780  0.98220  0.85383  1.0000
  C   C19       1.0  0.35000  0.16770  0.98098  1.0000
  C   C20       1.0  0.65000  0.83230  0.01902  1.0000
  H   H9        1.0  0.40100  0.16970  0.95510  1.0000
  H   H10       1.0  0.59900  0.83030  0.04490  1.0000
  O   O19       1.0  0.40930  0.92930  0.19438  1.0000
  O   O20       1.0  0.59070  0.07070  0.80562  1.0000
  C   C21       1.0  0.34190  0.25850  0.01194  1.0000
  C   C22       1.0  0.65810  0.74150  0.98806  1.0000
  H   H11       1.0  0.38500  0.32420  0.00670  1.0000
  H   H12       1.0  0.61500  0.67580  0.99330  1.0000
  O   O21       1.0  0.92840  0.31170  0.17201  1.0000
  O   O22       1.0  0.07160  0.68830  0.82799  1.0000
  O   O23       1.0  0.88120  0.41120  0.23538  1.0000
  O   O24       1.0  0.11880  0.58880  0.76462  1.0000
  C   C23       1.0  0.26940  0.25050  0.05055  1.0000
  C   C24       1.0  0.73060  0.74950  0.94945  1.0000
  C   C25       1.0  0.13020  0.97400  0.04109  1.0000
  C   C26       1.0  0.86980  0.02600  0.95891  1.0000
  O   O25       1.0  0.70640  0.60070  0.29973  1.0000
  O   O26       1.0  0.29360  0.39930  0.70027  1.0000
  C   C27       1.0  0.25970  0.34070  0.08746  1.0000
  C   C28       1.0  0.74030  0.65930  0.91254  1.0000
  O   O27       1.0  0.85850  0.69940  0.27035  1.0000
  O   O28       1.0  0.14150  0.30060  0.72965  1.0000
  C   C29       1.0  0.24420  0.09450  0.21779  1.0000
  C   C30       1.0  0.75580  0.90550  0.78221  1.0000
  O   O29       1.0  0.75680  0.33490  0.40925  1.0000
  O   O30       1.0  0.24320  0.66510  0.59075  1.0000
  C   C31       1.0  0.28210  0.09740  0.26103  1.0000
  C   C32       1.0  0.71790  0.90260  0.73897  1.0000
  H   H13       1.0  0.35720  0.04520  0.27050  1.0000
  H   H14       1.0  0.64280  0.95480  0.72950  1.0000
  O   O31       1.0  0.94650  0.24680  0.43754  1.0000
  O   O32       1.0  0.05350  0.75320  0.56246  1.0000
  C   C33       1.0  0.20740  0.17830  0.28929  1.0000
  C   C34       1.0  0.79260  0.82170  0.71071  1.0000
  H   H15       1.0  0.23220  0.18230  0.31820  1.0000
  H   H16       1.0  0.76780  0.81770  0.68180  1.0000
  O   O33       1.0  0.63480  0.64140  0.39736  1.0000
  O   O34       1.0  0.36520  0.35860  0.60264  1.0000
  O   O35       1.0  0.52020  0.78820  0.44025  1.0000
  O   O36       1.0  0.47980  0.21180  0.55975  1.0000
  C   C35       1.0  0.09530  0.25380  0.27517  1.0000
  C   C36       1.0  0.90470  0.74620  0.72483  1.0000
  H   H17       1.0  0.04190  0.30730  0.29440  1.0000
  H   H18       1.0  0.95810  0.69270  0.70560  1.0000
  O   O37       1.0  0.50420  0.29620  0.36917  1.0000
  O   O38       1.0  0.49580  0.70380  0.63083  1.0000
  C   C37       1.0  0.06450  0.24800  0.23189  1.0000
  C   C38       1.0  0.93550  0.75200  0.76811  1.0000
  C   C39       1.0  0.31280  0.00650  0.18366  1.0000
  C   C40       1.0  0.68720  0.99350  0.81634  1.0000
  O   O39       1.0  0.37180  0.20530  0.41307  1.0000
  O   O40       1.0  0.62820  0.79470  0.58693  1.0000
  C   C41       1.0  0.94740  0.33020  0.21203  1.0000
  C   C42       1.0  0.05260  0.66980  0.78797  1.0000
  O   O41       1.0  0.74520  0.27990  0.31232  1.0000
  O   O42       1.0  0.25480  0.72010  0.68768  1.0000
  C   C43       1.0  0.92070  0.54650  0.32553  1.0000
  C   C44       1.0  0.07930  0.45350  0.67447  1.0000
  O   O43       1.0  0.76000  0.14960  0.25659  1.0000
  O   O44       1.0  0.24000  0.85040  0.74341  1.0000
  C   C45       1.0  0.05200  0.55290  0.32501  1.0000
  C   C46       1.0  0.94800  0.44710  0.67499  1.0000
  H   H19       1.0  0.08560  0.60730  0.30580  1.0000
  H   H20       1.0  0.91440  0.39270  0.69420  1.0000
  O   O45       1.0  0.43640  0.60500  0.33355  1.0000
  O   O46       1.0  0.56360  0.39500  0.66645  1.0000
  O   O47       1.0  0.29250  0.68890  0.28376  1.0000
  O   O48       1.0  0.70750  0.31110  0.71624  1.0000
  C   C47       1.0  0.13290  0.47740  0.35348  1.0000
  C   C48       1.0  0.86710  0.52260  0.64652  1.0000
  H   H21       1.0  0.22170  0.48050  0.35370  1.0000
  H   H22       1.0  0.77830  0.51950  0.64630  1.0000
  O   O49       1.0  0.02330  0.91150  0.26265  1.0000
  O   O50       1.0  0.97670  0.08850  0.73735  1.0000
  H   H23       1.0  0.05960  0.90500  0.28740  1.0000
  H   H24       1.0  0.94040  0.09500  0.71260  1.0000
  H   H25       1.0  0.01470  0.96050  0.24050  1.0000
  H   H26       1.0  0.98530  0.03950  0.75950  1.0000
  C   C49       1.0  0.08100  0.39780  0.38145  1.0000
  C   C50       1.0  0.91900  0.60220  0.61855  1.0000
  H   H27       1.0  0.13440  0.34400  0.40010  1.0000
  H   H28       1.0  0.86560  0.65600  0.59990  1.0000
  C   C51       1.0  0.94890  0.39900  0.38136  1.0000
  C   C52       1.0  0.05110  0.60100  0.61864  1.0000
  O   O51       1.0  0.57410  0.06700  0.32761  1.0000
  O   O52       1.0  0.42590  0.93300  0.67239  1.0000
  H   H29       1.0  0.57830  0.13960  0.33520  1.0000
  H   H30       1.0  0.42170  0.86040  0.66480  1.0000
  H   H31       1.0  0.51910  0.02350  0.33700  1.0000
  H   H32       1.0  0.48090  0.97650  0.66300  1.0000
  C   C53       1.0  0.82160  0.62110  0.29582  1.0000
  C   C54       1.0  0.17840  0.37890  0.70418  1.0000
  O   O53       1.0  0.88680  0.05730  0.34339  1.0000
  O   O54       1.0  0.11320  0.94270  0.65661  1.0000
  H   H33       1.0  0.85340  0.13320  0.34620  1.0000
  H   H34       1.0  0.14660  0.86680  0.65380  1.0000
  H   H35       1.0  0.88970  0.00290  0.36380  1.0000
  H   H36       1.0  0.11030  0.99710  0.63620  1.0000
  C   C55       1.0  0.87830  0.32000  0.41209  1.0000
  C   C56       1.0  0.12170  0.68000  0.58791  1.0000
  O   O55       1.0  0.76910  0.82080  0.36162  1.0000
  O   O56       1.0  0.23090  0.17920  0.63838  1.0000
  H   H37       1.0  0.74240  0.75420  0.36820  1.0000
  H   H38       1.0  0.25760  0.24580  0.63180  1.0000
  H   H39       1.0  0.81350  0.83700  0.38280  1.0000
  H   H40       1.0  0.18650  0.16300  0.61720  1.0000
  C   C57       1.0  0.45970  0.59230  0.44196  1.0000
  C   C58       1.0  0.54030  0.40770  0.55804  1.0000
  O   O57       1.0  0.56190  0.84470  0.27571  1.0000
  O   O58       1.0  0.43810  0.15530  0.72429  1.0000
  H   H41       1.0  0.56570  0.76980  0.28360  1.0000
  H   H42       1.0  0.43430  0.23020  0.71640  1.0000
  H   H43       1.0  0.49200  0.86750  0.26170  1.0000
  H   H44       1.0  0.50800  0.13250  0.73830  1.0000
  C   C59       1.0  0.37300  0.61370  0.47778  1.0000
  C   C60       1.0  0.62700  0.38630  0.52222  1.0000
  H   H45       1.0  0.36220  0.68730  0.49290  1.0000
  H   H46       1.0  0.63780  0.31270  0.50710  1.0000
  C   C61       1.0  0.30240  0.52390  0.49082  1.0000
  C   C62       1.0  0.69760  0.47610  0.50918  1.0000
  H   H47       1.0  0.24400  0.53550  0.51510  1.0000
  H   H48       1.0  0.75600  0.46450  0.48490  1.0000
  C   C63       1.0  0.31980  0.41860  0.46758  1.0000
  C   C64       1.0  0.68020  0.58140  0.53242  1.0000
  H   H49       1.0  0.27320  0.35720  0.47590  1.0000
  H   H50       1.0  0.72680  0.64280  0.52410  1.0000
  C   C65       1.0  0.40650  0.40230  0.43159  1.0000
  C   C66       1.0  0.59350  0.59770  0.56841  1.0000
  C   C67       1.0  0.54500  0.68230  0.42531  1.0000
  C   C68       1.0  0.45500  0.31770  0.57469  1.0000
  C   C69       1.0  0.42930  0.29110  0.40263  1.0000
  C   C70       1.0  0.57070  0.70890  0.59737  1.0000
  C   C71       1.0  0.58430  0.32130  0.25867  1.0000
  C   C72       1.0  0.41570  0.67870  0.74133  1.0000
  C   C73       1.0  0.52670  0.29260  0.22128  1.0000
  C   C74       1.0  0.47330  0.70740  0.77872  1.0000
  H   H51       1.0  0.56190  0.22180  0.20580  1.0000
  H   H52       1.0  0.43810  0.77820  0.79420  1.0000
  C   C75       1.0  0.41590  0.37120  0.20740  1.0000
  C   C76       1.0  0.58410  0.62880  0.79260  1.0000
  H   H53       1.0  0.37460  0.35360  0.18240  1.0000
  H   H54       1.0  0.62540  0.64640  0.81760  1.0000
  C   C77       1.0  0.36740  0.47520  0.23061  1.0000
  C   C78       1.0  0.63260  0.52480  0.76939  1.0000
  H   H55       1.0  0.29390  0.53010  0.22130  1.0000
  H   H56       1.0  0.70610  0.46990  0.77870  1.0000
  C   C79       1.0  0.42870  0.49800  0.26815  1.0000
  C   C80       1.0  0.57130  0.50200  0.73185  1.0000
  C   C81       1.0  0.70690  0.24310  0.27675  1.0000
  C   C82       1.0  0.29310  0.75690  0.72325  1.0000
  C   C83       1.0  0.38170  0.60630  0.29709  1.0000
  C   C84       1.0  0.61830  0.39370  0.70291  1.0000
