data_image0
_chemical_formula_structural       Cd4C12H4C8H4C8H4C8H8C8H4C8H4C4H4C4H4C8H8C8H4C8H4C4H4C4H4C4N4O32
_chemical_formula_sum              "Cd4 C96 H60 N4 O32"
_cell_length_a       10.0732
_cell_length_b       26.6408
_cell_length_c       14.5918
_cell_angle_alpha    90
_cell_angle_beta     110.73
_cell_angle_gamma    90

_space_group_name_H-M_alt    "P 1"
_space_group_IT_number       1

loop_
  _space_group_symop_operation_xyz
  'x, y, z'

loop_
  _atom_site_type_symbol
  _atom_site_label
  _atom_site_symmetry_multiplicity
  _atom_site_fract_x
  _atom_site_fract_y
  _atom_site_fract_z
  _atom_site_occupancy
  Cd  Cd1       1.0  0.60297  0.65429  0.49061  1.0000
  Cd  Cd2       1.0  0.39703  0.15429  0.00939  1.0000
  Cd  Cd3       1.0  0.39703  0.34571  0.50939  1.0000
  Cd  Cd4       1.0  0.60297  0.84571  0.99061  1.0000
  C   C1        1.0  0.35020  0.69590  0.49500  1.0000
  C   C2        1.0  0.64980  0.19590  0.00500  1.0000
  C   C3        1.0  0.64980  0.30410  0.50500  1.0000
  C   C4        1.0  0.35020  0.80410  0.99500  1.0000
  C   C5        1.0  0.22240  0.72540  0.49550  1.0000
  C   C6        1.0  0.77760  0.22540  0.00450  1.0000
  C   C7        1.0  0.77760  0.27460  0.50450  1.0000
  C   C8        1.0  0.22240  0.77460  0.99550  1.0000
  C   C9        1.0  0.22610  0.77700  0.49160  1.0000
  C   C10       1.0  0.77390  0.27700  0.00840  1.0000
  C   C11       1.0  0.77390  0.22300  0.50840  1.0000
  C   C12       1.0  0.22610  0.72300  0.99160  1.0000
  H   H1        1.0  0.30650  0.79290  0.48840  1.0000
  H   H2        1.0  0.69350  0.29290  0.01160  1.0000
  H   H3        1.0  0.69350  0.20710  0.51160  1.0000
  H   H4        1.0  0.30650  0.70710  0.98840  1.0000
  C   C13       1.0  0.10970  0.80600  0.49260  1.0000
  C   C14       1.0  0.89030  0.30600  0.00740  1.0000
  C   C15       1.0  0.89030  0.19400  0.50740  1.0000
  C   C16       1.0  0.10970  0.69400  0.99260  1.0000
  C   C17       1.0  0.98950  0.78050  0.49440  1.0000
  C   C18       1.0  0.01050  0.28050  0.00560  1.0000
  C   C19       1.0  0.01050  0.21950  0.50560  1.0000
  C   C20       1.0  0.98950  0.71950  0.99440  1.0000
  H   H5        1.0  0.90950  0.79870  0.49180  1.0000
  H   H6        1.0  0.09050  0.29870  0.00820  1.0000
  H   H7        1.0  0.09050  0.20130  0.50820  1.0000
  H   H8        1.0  0.90950  0.70130  0.99180  1.0000
  C   C21       1.0  0.98750  0.72860  0.50000  1.0000
  C   C22       1.0  0.01250  0.22860  0.00000  1.0000
  C   C23       1.0  0.01250  0.27140  0.50000  1.0000
  C   C24       1.0  0.98750  0.77140  0.00000  1.0000
  C   C25       1.0  0.10440  0.70070  0.50120  1.0000
  C   C26       1.0  0.89560  0.20070  0.99880  1.0000
  C   C27       1.0  0.89560  0.29930  0.49880  1.0000
  C   C28       1.0  0.10440  0.79930  0.00120  1.0000
  H   H9        1.0  0.10360  0.66590  0.50590  1.0000
  H   H10       1.0  0.89640  0.16590  0.99410  1.0000
  H   H11       1.0  0.89640  0.33410  0.49410  1.0000
  H   H12       1.0  0.10360  0.83410  0.00590  1.0000
  C   C29       1.0  0.85610  0.70160  0.50000  1.0000
  C   C30       1.0  0.14390  0.20160  0.00000  1.0000
  C   C31       1.0  0.14390  0.29840  0.50000  1.0000
  C   C32       1.0  0.85610  0.79840  0.00000  1.0000
  C   C33       1.0  0.21570  0.88320  0.45500  1.0000
  C   C34       1.0  0.78430  0.38320  0.04500  1.0000
  C   C35       1.0  0.78430  0.11680  0.54500  1.0000
  C   C36       1.0  0.21570  0.61680  0.95500  1.0000
  H   H13       1.0  0.17060  0.91330  0.42030  1.0000
  H   H14       1.0  0.82940  0.41330  0.07970  1.0000
  H   H15       1.0  0.82940  0.08670  0.57970  1.0000
  H   H16       1.0  0.17060  0.58670  0.92030  1.0000
  H   H17       1.0  0.23570  0.86150  0.40820  1.0000
  H   H18       1.0  0.76430  0.36150  0.09180  1.0000
  H   H19       1.0  0.76430  0.13850  0.59180  1.0000
  H   H20       1.0  0.23570  0.63850  0.90820  1.0000
  C   C37       1.0  0.35490  0.89810  0.53250  1.0000
  C   C38       1.0  0.64510  0.39810  0.96750  1.0000
  C   C39       1.0  0.64510  0.10190  0.46750  1.0000
  C   C40       1.0  0.35490  0.60190  0.03250  1.0000
  C   C41       1.0  0.39050  0.88700  0.63010  1.0000
  C   C42       1.0  0.60950  0.38700  0.86990  1.0000
  C   C43       1.0  0.60950  0.11300  0.36990  1.0000
  C   C44       1.0  0.39050  0.61300  0.13010  1.0000
  H   H21       1.0  0.32820  0.86800  0.65010  1.0000
  H   H22       1.0  0.67180  0.36800  0.84990  1.0000
  H   H23       1.0  0.67180  0.13200  0.34990  1.0000
  H   H24       1.0  0.32820  0.63200  0.15010  1.0000
  C   C45       1.0  0.51540  0.90320  0.69890  1.0000
  C   C46       1.0  0.48460  0.40320  0.80110  1.0000
  C   C47       1.0  0.48460  0.09680  0.30110  1.0000
  C   C48       1.0  0.51540  0.59680  0.19890  1.0000
  C   C49       1.0  0.60760  0.93050  0.66930  1.0000
  C   C50       1.0  0.39240  0.43050  0.83070  1.0000
  C   C51       1.0  0.39240  0.06950  0.33070  1.0000
  C   C52       1.0  0.60760  0.56950  0.16930  1.0000
  H   H25       1.0  0.69210  0.94180  0.71550  1.0000
  H   H26       1.0  0.30790  0.44180  0.78450  1.0000
  H   H27       1.0  0.30790  0.05820  0.28450  1.0000
  H   H28       1.0  0.69210  0.55820  0.21550  1.0000
  C   C53       1.0  0.57730  0.94120  0.57260  1.0000
  C   C54       1.0  0.42270  0.44120  0.92740  1.0000
  C   C55       1.0  0.42270  0.05880  0.42740  1.0000
  C   C56       1.0  0.57730  0.55880  0.07260  1.0000
  H   H29       1.0  0.64160  0.95950  0.55330  1.0000
  H   H30       1.0  0.35840  0.45950  0.94670  1.0000
  H   H31       1.0  0.35840  0.04050  0.44670  1.0000
  H   H32       1.0  0.64160  0.54050  0.05330  1.0000
  C   C57       1.0  0.45230  0.92510  0.50370  1.0000
  C   C58       1.0  0.54770  0.42510  0.99630  1.0000
  C   C59       1.0  0.54770  0.07490  0.49630  1.0000
  C   C60       1.0  0.45230  0.57490  0.00370  1.0000
  H   H33       1.0  0.43240  0.93230  0.43780  1.0000
  H   H34       1.0  0.56760  0.43230  0.06220  1.0000
  H   H35       1.0  0.56760  0.06770  0.56220  1.0000
  H   H36       1.0  0.43240  0.56770  0.93780  1.0000
  C   C61       1.0  0.55270  0.89020  0.80710  1.0000
  C   C62       1.0  0.44730  0.39020  0.69290  1.0000
  C   C63       1.0  0.44730  0.10980  0.19290  1.0000
  C   C64       1.0  0.55270  0.60980  0.30710  1.0000
  C   C65       1.0  0.02230  0.88940  0.52080  1.0000
  C   C66       1.0  0.97770  0.38940  0.97920  1.0000
  C   C67       1.0  0.97770  0.11060  0.47920  1.0000
  C   C68       1.0  0.02230  0.61060  0.02080  1.0000
  H   H37       1.0  0.07840  0.91570  0.56300  1.0000
  H   H38       1.0  0.92160  0.41570  0.93700  1.0000
  H   H39       1.0  0.92160  0.08430  0.43700  1.0000
  H   H40       1.0  0.07840  0.58430  0.06300  1.0000
  H   H41       1.0  0.98120  0.86940  0.55940  1.0000
  H   H42       1.0  0.01880  0.36940  0.94060  1.0000
  H   H43       1.0  0.01880  0.13060  0.44060  1.0000
  H   H44       1.0  0.98120  0.63060  0.05940  1.0000
  C   C69       1.0  0.90320  0.91370  0.43830  1.0000
  C   C70       1.0  0.09680  0.41370  0.06170  1.0000
  C   C71       1.0  0.09680  0.08630  0.56170  1.0000
  C   C72       1.0  0.90320  0.58630  0.93830  1.0000
  C   C73       1.0  0.84890  0.89150  0.34630  1.0000
  C   C74       1.0  0.15110  0.39150  0.15370  1.0000
  C   C75       1.0  0.15110  0.10850  0.65370  1.0000
  C   C76       1.0  0.84890  0.60850  0.84630  1.0000
  H   H45       1.0  0.88580  0.86090  0.33570  1.0000
  H   H46       1.0  0.11420  0.36090  0.16430  1.0000
  H   H47       1.0  0.11420  0.13910  0.66430  1.0000
  H   H48       1.0  0.88580  0.63910  0.83570  1.0000
  C   C77       1.0  0.74160  0.91380  0.27070  1.0000
  C   C78       1.0  0.25840  0.41380  0.22930  1.0000
  C   C79       1.0  0.25840  0.08620  0.72930  1.0000
  C   C80       1.0  0.74160  0.58620  0.77070  1.0000
  C   C81       1.0  0.68590  0.95890  0.28630  1.0000
  C   C82       1.0  0.31410  0.45890  0.21370  1.0000
  C   C83       1.0  0.31410  0.04110  0.71370  1.0000
  C   C84       1.0  0.68590  0.54110  0.78630  1.0000
  H   H49       1.0  0.61520  0.97460  0.23500  1.0000
  H   H50       1.0  0.38480  0.47460  0.26500  1.0000
  H   H51       1.0  0.38480  0.02540  0.76500  1.0000
  H   H52       1.0  0.61520  0.52540  0.73500  1.0000
  C   C85       1.0  0.73510  0.98080  0.37780  1.0000
  C   C86       1.0  0.26490  0.48080  0.12220  1.0000
  C   C87       1.0  0.26490  0.01920  0.62220  1.0000
  C   C88       1.0  0.73510  0.51920  0.87780  1.0000
  H   H53       1.0  0.69480  0.01050  0.38900  1.0000
  H   H54       1.0  0.30520  0.51050  0.11100  1.0000
  H   H55       1.0  0.30520  0.98950  0.61100  1.0000
  H   H56       1.0  0.69480  0.48950  0.88900  1.0000
  C   C89       1.0  0.84440  0.95850  0.45280  1.0000
  C   C90       1.0  0.15560  0.45850  0.04720  1.0000
  C   C91       1.0  0.15560  0.04150  0.54720  1.0000
  C   C92       1.0  0.84440  0.54150  0.95280  1.0000
  H   H57       1.0  0.87880  0.97380  0.51400  1.0000
  H   H58       1.0  0.12120  0.47380  0.98600  1.0000
  H   H59       1.0  0.12120  0.02620  0.48600  1.0000
  H   H60       1.0  0.87880  0.52620  0.01400  1.0000
  C   C93       1.0  0.68580  0.88890  0.17140  1.0000
  C   C94       1.0  0.31420  0.38890  0.32860  1.0000
  C   C95       1.0  0.31420  0.11110  0.82860  1.0000
  C   C96       1.0  0.68580  0.61110  0.67140  1.0000
  N   N1        1.0  0.11610  0.85784  0.49030  1.0000
  N   N2        1.0  0.88390  0.35784  0.00970  1.0000
  N   N3        1.0  0.88390  0.14216  0.50970  1.0000
  N   N4        1.0  0.11610  0.64216  0.99030  1.0000
  O   O1        1.0  0.45310  0.71963  0.48780  1.0000
  O   O2        1.0  0.54690  0.21963  0.01220  1.0000
  O   O3        1.0  0.54690  0.28037  0.51220  1.0000
  O   O4        1.0  0.45310  0.78037  0.98780  1.0000
  O   O5        1.0  0.34980  0.64928  0.50170  1.0000
  O   O6        1.0  0.65020  0.14928  0.99830  1.0000
  O   O7        1.0  0.65020  0.35072  0.49830  1.0000
  O   O8        1.0  0.34980  0.85072  0.00170  1.0000
  O   O9        1.0  0.73830  0.72226  0.45830  1.0000
  O   O10       1.0  0.26170  0.22226  0.04170  1.0000
  O   O11       1.0  0.26170  0.27774  0.54170  1.0000
  O   O12       1.0  0.73830  0.77774  0.95830  1.0000
  O   O13       1.0  0.86680  0.66031  0.53950  1.0000
  O   O14       1.0  0.13320  0.16031  0.96050  1.0000
  O   O15       1.0  0.13320  0.33969  0.46050  1.0000
  O   O16       1.0  0.86680  0.83969  0.03950  1.0000
  O   O17       1.0  0.47640  0.85990  0.82880  1.0000
  O   O18       1.0  0.52360  0.35990  0.67120  1.0000
  O   O19       1.0  0.52360  0.14010  0.17120  1.0000
  O   O20       1.0  0.47640  0.64010  0.32880  1.0000
  O   O21       1.0  0.65830  0.90870  0.86770  1.0000
  O   O22       1.0  0.34170  0.40870  0.63230  1.0000
  O   O23       1.0  0.34170  0.09130  0.13230  1.0000
  O   O24       1.0  0.65830  0.59130  0.36770  1.0000
  O   O25       1.0  0.68860  0.84180  0.16840  1.0000
  O   O26       1.0  0.31140  0.34180  0.33160  1.0000
  O   O27       1.0  0.31140  0.15820  0.83160  1.0000
  O   O28       1.0  0.68860  0.65820  0.66840  1.0000
  O   O29       1.0  0.64260  0.91529  0.09660  1.0000
  O   O30       1.0  0.35740  0.41529  0.40340  1.0000
  O   O31       1.0  0.35740  0.08471  0.90340  1.0000
  O   O32       1.0  0.64260  0.58471  0.59660  1.0000
