data_image0
_chemical_formula_structural       Cd8O8C4O16C8O12C4H4N4C4O20C4H4C12N4C4H4C8H4C4H8O4C8H4C8H4C4H4C16H4C8H8C20H8C4H8C4H4C4H4C8H4C4H4C12H4O4C4H4C4H4C4H4C8H4C4H4C4H4C4H4C4H4C4H4
_chemical_formula_sum              "Cd8 O64 C192 H120 N8"
_cell_length_a       15.972
_cell_length_b       21.984
_cell_length_c       20.09
_cell_angle_alpha    90
_cell_angle_beta     113.194
_cell_angle_gamma    90

_space_group_name_H-M_alt    "P 1"
_space_group_IT_number       1

loop_
  _space_group_symop_operation_xyz
  'x, y, z'

loop_
  _atom_site_type_symbol
  _atom_site_label
  _atom_site_symmetry_multiplicity
  _atom_site_fract_x
  _atom_site_fract_y
  _atom_site_fract_z
  _atom_site_occupancy
  Cd  Cd1       1.0  0.31225  0.36469  0.91925  1.0000
  Cd  Cd2       1.0  0.68775  0.86469  0.58075  1.0000
  Cd  Cd3       1.0  0.68775  0.63531  0.08075  1.0000
  Cd  Cd4       1.0  0.31225  0.13531  0.41925  1.0000
  Cd  Cd5       1.0  0.80734  0.37686  0.41686  1.0000
  Cd  Cd6       1.0  0.19266  0.87686  0.08314  1.0000
  Cd  Cd7       1.0  0.19266  0.62314  0.58314  1.0000
  Cd  Cd8       1.0  0.80734  0.12314  0.91686  1.0000
  O   O1        1.0  0.42790  0.35470  0.03120  1.0000
  O   O2        1.0  0.57210  0.85470  0.46880  1.0000
  O   O3        1.0  0.57210  0.64530  0.96880  1.0000
  O   O4        1.0  0.42790  0.14530  0.53120  1.0000
  O   O5        1.0  0.93520  0.12280  0.03200  1.0000
  O   O6        1.0  0.06480  0.62280  0.46800  1.0000
  O   O7        1.0  0.06480  0.87720  0.96800  1.0000
  O   O8        1.0  0.93520  0.37720  0.53200  1.0000
  C   C1        1.0  0.92790  0.17860  0.03510  1.0000
  C   C2        1.0  0.07210  0.67860  0.46490  1.0000
  C   C3        1.0  0.07210  0.82140  0.96490  1.0000
  C   C4        1.0  0.92790  0.32140  0.53510  1.0000
  O   O9        1.0  0.21570  0.35410  0.99300  1.0000
  O   O10       1.0  0.78430  0.85410  0.50700  1.0000
  O   O11       1.0  0.78430  0.64590  0.00700  1.0000
  O   O12       1.0  0.21570  0.14590  0.49300  1.0000
  O   O13       1.0  0.73240  0.04510  0.94660  1.0000
  O   O14       1.0  0.26760  0.54510  0.55340  1.0000
  O   O15       1.0  0.26760  0.95490  0.05340  1.0000
  O   O16       1.0  0.73240  0.45490  0.44660  1.0000
  O   O17       1.0  0.43160  0.14160  0.37270  1.0000
  O   O18       1.0  0.56840  0.64160  0.12730  1.0000
  O   O19       1.0  0.56840  0.85840  0.62730  1.0000
  O   O20       1.0  0.43160  0.35840  0.87270  1.0000
  O   O21       1.0  0.88310  0.45070  0.38180  1.0000
  O   O22       1.0  0.11690  0.95070  0.11820  1.0000
  O   O23       1.0  0.11690  0.54930  0.61820  1.0000
  O   O24       1.0  0.88310  0.04930  0.88180  1.0000
  C   C5        1.0  0.05410  0.30800  0.16310  1.0000
  C   C6        1.0  0.94590  0.80800  0.33690  1.0000
  C   C7        1.0  0.94590  0.69200  0.83690  1.0000
  C   C8        1.0  0.05410  0.19200  0.66310  1.0000
  C   C9        1.0  0.57020  0.18350  0.18030  1.0000
  C   C10       1.0  0.42980  0.68350  0.31970  1.0000
  C   C11       1.0  0.42980  0.81650  0.81970  1.0000
  C   C12       1.0  0.57020  0.31650  0.68030  1.0000
  O   O25       1.0  0.86980  0.21020  0.98670  1.0000
  O   O26       1.0  0.13020  0.71020  0.51330  1.0000
  O   O27       1.0  0.13020  0.78980  0.01330  1.0000
  O   O28       1.0  0.86980  0.28980  0.48670  1.0000
  O   O29       1.0  0.20600  0.12520  0.27400  1.0000
  O   O30       1.0  0.79400  0.62520  0.22600  1.0000
  O   O31       1.0  0.79400  0.87480  0.72600  1.0000
  O   O32       1.0  0.20600  0.37480  0.77400  1.0000
  O   O33       1.0  0.70970  0.13130  0.99290  1.0000
  O   O34       1.0  0.29030  0.63130  0.50710  1.0000
  O   O35       1.0  0.29030  0.86870  0.00710  1.0000
  O   O36       1.0  0.70970  0.36870  0.49290  1.0000
  C   C13       1.0  0.62150  0.22510  0.23580  1.0000
  C   C14       1.0  0.37850  0.72510  0.26420  1.0000
  C   C15       1.0  0.37850  0.77490  0.76420  1.0000
  C   C16       1.0  0.62150  0.27490  0.73580  1.0000
  H   H1        1.0  0.66200  0.21010  0.28000  1.0000
  H   H2        1.0  0.33800  0.71010  0.22000  1.0000
  H   H3        1.0  0.33800  0.78990  0.72000  1.0000
  H   H4        1.0  0.66200  0.28990  0.78000  1.0000
  N   N1        1.0  0.58320  0.12060  0.19200  1.0000
  N   N2        1.0  0.41680  0.62060  0.30800  1.0000
  N   N3        1.0  0.41680  0.87940  0.80800  1.0000
  N   N4        1.0  0.58320  0.37940  0.69200  1.0000
  C   C17       1.0  0.92900  0.41530  0.36130  1.0000
  C   C18       1.0  0.07100  0.91530  0.13870  1.0000
  C   C19       1.0  0.07100  0.58470  0.63870  1.0000
  C   C20       1.0  0.92900  0.08470  0.86130  1.0000
  O   O37       1.0  0.91790  0.35930  0.35670  1.0000
  O   O38       1.0  0.08210  0.85930  0.14330  1.0000
  O   O39       1.0  0.08210  0.64070  0.64330  1.0000
  O   O40       1.0  0.91790  0.14070  0.85670  1.0000
  O   O41       1.0  0.21370  0.20330  0.34460  1.0000
  O   O42       1.0  0.78630  0.70330  0.15540  1.0000
  O   O43       1.0  0.78630  0.79670  0.65540  1.0000
  O   O44       1.0  0.21370  0.29670  0.84460  1.0000
  O   O45       1.0  0.38020  0.26280  0.98980  1.0000
  O   O46       1.0  0.61980  0.76280  0.51020  1.0000
  O   O47       1.0  0.61980  0.73720  0.01020  1.0000
  O   O48       1.0  0.38020  0.23720  0.48980  1.0000
  O   O49       1.0  0.68190  0.38280  0.26750  1.0000
  O   O50       1.0  0.31810  0.88280  0.23250  1.0000
  O   O51       1.0  0.31810  0.61720  0.73250  1.0000
  O   O52       1.0  0.68190  0.11720  0.76750  1.0000
  O   O53       1.0  0.70700  0.30750  0.34610  1.0000
  O   O54       1.0  0.29300  0.80750  0.15390  1.0000
  O   O55       1.0  0.29300  0.69250  0.65390  1.0000
  O   O56       1.0  0.70700  0.19250  0.84610  1.0000
  C   C21       1.0  0.99580  0.27510  0.10420  1.0000
  C   C22       1.0  0.00420  0.77510  0.39580  1.0000
  C   C23       1.0  0.00420  0.72490  0.89580  1.0000
  C   C24       1.0  0.99580  0.22490  0.60420  1.0000
  H   H5        1.0  0.95570  0.29610  0.06420  1.0000
  H   H6        1.0  0.04430  0.79610  0.43580  1.0000
  H   H7        1.0  0.04430  0.70390  0.93580  1.0000
  H   H8        1.0  0.95570  0.20390  0.56420  1.0000
  C   C25       1.0  0.67160  0.32870  0.28370  1.0000
  C   C26       1.0  0.32840  0.82870  0.21630  1.0000
  C   C27       1.0  0.32840  0.67130  0.71630  1.0000
  C   C28       1.0  0.67160  0.17130  0.78370  1.0000
  C   C29       1.0  0.99480  0.21230  0.10280  1.0000
  C   C30       1.0  0.00520  0.71230  0.39720  1.0000
  C   C31       1.0  0.00520  0.78770  0.89720  1.0000
  C   C32       1.0  0.99480  0.28770  0.60280  1.0000
  C   C33       1.0  0.61260  0.28760  0.22550  1.0000
  C   C34       1.0  0.38740  0.78760  0.27450  1.0000
  C   C35       1.0  0.38740  0.71240  0.77450  1.0000
  C   C36       1.0  0.61260  0.21240  0.72550  1.0000
  N   N5        1.0  0.05230  0.37060  0.16160  1.0000
  N   N6        1.0  0.94770  0.87060  0.33840  1.0000
  N   N7        1.0  0.94770  0.62940  0.83840  1.0000
  N   N8        1.0  0.05230  0.12940  0.66160  1.0000
  C   C37       1.0  0.02800  0.41310  0.28890  1.0000
  C   C38       1.0  0.97200  0.91310  0.21110  1.0000
  C   C39       1.0  0.97200  0.58690  0.71110  1.0000
  C   C40       1.0  0.02800  0.08690  0.78890  1.0000
  H   H9        1.0  0.99990  0.37690  0.26770  1.0000
  H   H10       1.0  0.00010  0.87690  0.23230  1.0000
  H   H11       1.0  0.00010  0.62310  0.73230  1.0000
  H   H12       1.0  0.99990  0.12310  0.76770  1.0000
  C   C41       1.0  0.11270  0.21150  0.22030  1.0000
  C   C42       1.0  0.88730  0.71150  0.27970  1.0000
  C   C43       1.0  0.88730  0.78850  0.77970  1.0000
  C   C44       1.0  0.11270  0.28850  0.72030  1.0000
  C   C45       1.0  0.05490  0.18000  0.16220  1.0000
  C   C46       1.0  0.94510  0.68000  0.33780  1.0000
  C   C47       1.0  0.94510  0.82000  0.83780  1.0000
  C   C48       1.0  0.05490  0.32000  0.66220  1.0000
  H   H13       1.0  0.05540  0.13770  0.16210  1.0000
  H   H14       1.0  0.94460  0.63770  0.33790  1.0000
  H   H15       1.0  0.94460  0.86230  0.83790  1.0000
  H   H16       1.0  0.05540  0.36230  0.66210  1.0000
  C   C49       1.0  0.12130  0.40720  0.21220  1.0000
  C   C50       1.0  0.87870  0.90720  0.28780  1.0000
  C   C51       1.0  0.87870  0.59280  0.78780  1.0000
  C   C52       1.0  0.12130  0.09280  0.71220  1.0000
  H   H17       1.0  0.13830  0.43850  0.18590  1.0000
  H   H18       1.0  0.86170  0.93850  0.31410  1.0000
  H   H19       1.0  0.86170  0.56150  0.81410  1.0000
  H   H20       1.0  0.13830  0.06150  0.68590  1.0000
  H   H21       1.0  0.17450  0.38200  0.23660  1.0000
  H   H22       1.0  0.82550  0.88200  0.26340  1.0000
  H   H23       1.0  0.82550  0.61800  0.76340  1.0000
  H   H24       1.0  0.17450  0.11800  0.73660  1.0000
  O   O57       1.0  0.39610  0.05140  0.40180  1.0000
  O   O58       1.0  0.60390  0.55140  0.09820  1.0000
  O   O59       1.0  0.60390  0.94860  0.59820  1.0000
  O   O60       1.0  0.39610  0.44860  0.90180  1.0000
  C   C53       1.0  0.49630  0.27110  0.10620  1.0000
  C   C54       1.0  0.50370  0.77110  0.39380  1.0000
  C   C55       1.0  0.50370  0.72890  0.89380  1.0000
  C   C56       1.0  0.49630  0.22890  0.60620  1.0000
  C   C57       1.0  0.54760  0.31030  0.15980  1.0000
  C   C58       1.0  0.45240  0.81030  0.34020  1.0000
  C   C59       1.0  0.45240  0.68970  0.84020  1.0000
  C   C60       1.0  0.54760  0.18970  0.65980  1.0000
  H   H25       1.0  0.53950  0.35200  0.15270  1.0000
  H   H26       1.0  0.46050  0.85200  0.34730  1.0000
  H   H27       1.0  0.46050  0.64800  0.84730  1.0000
  H   H28       1.0  0.53950  0.14800  0.65270  1.0000
  C   C61       1.0  0.08010  0.40920  0.96310  1.0000
  C   C62       1.0  0.91990  0.90920  0.53690  1.0000
  C   C63       1.0  0.91990  0.59080  0.03690  1.0000
  C   C64       1.0  0.08010  0.09080  0.46310  1.0000
  C   C65       1.0  0.55400  0.08690  0.32060  1.0000
  C   C66       1.0  0.44600  0.58690  0.17940  1.0000
  C   C67       1.0  0.44600  0.91310  0.67940  1.0000
  C   C68       1.0  0.55400  0.41310  0.82060  1.0000
  H   H29       1.0  0.52780  0.12340  0.29890  1.0000
  H   H30       1.0  0.47220  0.62340  0.20110  1.0000
  H   H31       1.0  0.47220  0.87660  0.70110  1.0000
  H   H32       1.0  0.52780  0.37660  0.79890  1.0000
  C   C69       1.0  0.11230  0.27460  0.22140  1.0000
  C   C70       1.0  0.88770  0.77460  0.27860  1.0000
  C   C71       1.0  0.88770  0.72540  0.77860  1.0000
  C   C72       1.0  0.11230  0.22540  0.72140  1.0000
  H   H33       1.0  0.15200  0.29500  0.26230  1.0000
  H   H34       1.0  0.84800  0.79500  0.23770  1.0000
  H   H35       1.0  0.84800  0.70500  0.73770  1.0000
  H   H36       1.0  0.15200  0.20500  0.76230  1.0000
  C   C73       1.0  0.43040  0.29880  0.03770  1.0000
  C   C74       1.0  0.56960  0.79880  0.46230  1.0000
  C   C75       1.0  0.56960  0.70120  0.96230  1.0000
  C   C76       1.0  0.43040  0.20120  0.53770  1.0000
  C   C77       1.0  0.00160  0.44170  0.34000  1.0000
  C   C78       1.0  0.99840  0.94170  0.16000  1.0000
  C   C79       1.0  0.99840  0.55830  0.66000  1.0000
  C   C80       1.0  0.00160  0.05830  0.84000  1.0000
  C   C81       1.0  0.17060  0.39670  0.95780  1.0000
  C   C82       1.0  0.82940  0.89670  0.54220  1.0000
  C   C83       1.0  0.82940  0.60330  0.04220  1.0000
  C   C84       1.0  0.17060  0.10330  0.45780  1.0000
  C   C85       1.0  0.07150  0.39840  0.02810  1.0000
  C   C86       1.0  0.92850  0.89840  0.47190  1.0000
  C   C87       1.0  0.92850  0.60160  0.97190  1.0000
  C   C88       1.0  0.07150  0.10160  0.52810  1.0000
  H   H37       1.0  0.12050  0.38340  0.06780  1.0000
  H   H38       1.0  0.87950  0.88340  0.43220  1.0000
  H   H39       1.0  0.87950  0.61660  0.93220  1.0000
  H   H40       1.0  0.12050  0.11660  0.56780  1.0000
  C   C89       1.0  0.44570  0.08580  0.38130  1.0000
  C   C90       1.0  0.55430  0.58580  0.11870  1.0000
  C   C91       1.0  0.55430  0.91420  0.61870  1.0000
  C   C92       1.0  0.44570  0.41420  0.88130  1.0000
  C   C93       1.0  0.65420  0.09250  0.25290  1.0000
  C   C94       1.0  0.34580  0.59250  0.24710  1.0000
  C   C95       1.0  0.34580  0.90750  0.74710  1.0000
  C   C96       1.0  0.65420  0.40750  0.75290  1.0000
  H   H41       1.0  0.69870  0.12330  0.27830  1.0000
  H   H42       1.0  0.30130  0.62330  0.22170  1.0000
  H   H43       1.0  0.30130  0.87670  0.72170  1.0000
  H   H44       1.0  0.69870  0.37670  0.77830  1.0000
  H   H45       1.0  0.68470  0.06260  0.23480  1.0000
  H   H46       1.0  0.31530  0.56260  0.26520  1.0000
  H   H47       1.0  0.31530  0.93740  0.76520  1.0000
  H   H48       1.0  0.68470  0.43740  0.73480  1.0000
  C   C97       1.0  0.65600  0.03990  0.02630  1.0000
  C   C98       1.0  0.34400  0.53990  0.47370  1.0000
  C   C99       1.0  0.34400  0.96010  0.97370  1.0000
  C   C100      1.0  0.65600  0.46010  0.52630  1.0000
  C   C101      1.0  0.70130  0.07590  0.98530  1.0000
  C   C102      1.0  0.29870  0.57590  0.51470  1.0000
  C   C103      1.0  0.29870  0.92410  0.01470  1.0000
  C   C104      1.0  0.70130  0.42410  0.48530  1.0000
  C   C105      1.0  0.09510  0.43760  0.26930  1.0000
  C   C106      1.0  0.90490  0.93760  0.23070  1.0000
  C   C107      1.0  0.90490  0.56240  0.73070  1.0000
  C   C108      1.0  0.09510  0.06240  0.76930  1.0000
  C   C109      1.0  0.62350  0.06190  0.30590  1.0000
  C   C110      1.0  0.37650  0.56190  0.19410  1.0000
  C   C111      1.0  0.37650  0.93810  0.69410  1.0000
  C   C112      1.0  0.62350  0.43810  0.80590  1.0000
  C   C113      1.0  0.52140  0.07620  0.14120  1.0000
  C   C114      1.0  0.47860  0.57620  0.35880  1.0000
  C   C115      1.0  0.47860  0.92380  0.85880  1.0000
  C   C116      1.0  0.52140  0.42380  0.64120  1.0000
  H   H49       1.0  0.47000  0.09760  0.10580  1.0000
  H   H50       1.0  0.53000  0.59760  0.39420  1.0000
  H   H51       1.0  0.53000  0.90240  0.89420  1.0000
  H   H52       1.0  0.47000  0.40240  0.60580  1.0000
  H   H53       1.0  0.49820  0.04880  0.16760  1.0000
  H   H54       1.0  0.50180  0.54880  0.33240  1.0000
  H   H55       1.0  0.50180  0.95120  0.83240  1.0000
  H   H56       1.0  0.49820  0.45120  0.66760  1.0000
  C   C117      1.0  0.97840  0.40340  0.10520  1.0000
  C   C118      1.0  0.02160  0.90340  0.39480  1.0000
  C   C119      1.0  0.02160  0.59660  0.89480  1.0000
  C   C120      1.0  0.97840  0.09660  0.60520  1.0000
  H   H57       1.0  0.97420  0.44370  0.12350  1.0000
  H   H58       1.0  0.02580  0.94370  0.37650  1.0000
  H   H59       1.0  0.02580  0.55630  0.87650  1.0000
  H   H60       1.0  0.97420  0.05630  0.62350  1.0000
  H   H61       1.0  0.92170  0.38250  0.09690  1.0000
  H   H62       1.0  0.07830  0.88250  0.40310  1.0000
  H   H63       1.0  0.07830  0.61750  0.90310  1.0000
  H   H64       1.0  0.92170  0.11750  0.59690  1.0000
  C   C121      1.0  0.50730  0.20910  0.11530  1.0000
  C   C122      1.0  0.49270  0.70910  0.38470  1.0000
  C   C123      1.0  0.49270  0.79090  0.88470  1.0000
  C   C124      1.0  0.50730  0.29090  0.61530  1.0000
  H   H65       1.0  0.47260  0.18350  0.07780  1.0000
  H   H66       1.0  0.52740  0.68350  0.42220  1.0000
  H   H67       1.0  0.52740  0.81650  0.92220  1.0000
  H   H68       1.0  0.47260  0.31650  0.57780  1.0000
  C   C125      1.0  0.56310  0.00390  0.40100  1.0000
  C   C126      1.0  0.43690  0.50390  0.09900  1.0000
  C   C127      1.0  0.43690  0.99610  0.59900  1.0000
  C   C128      1.0  0.56310  0.49610  0.90100  1.0000
  H   H69       1.0  0.54310  0.98460  0.43320  1.0000
  H   H70       1.0  0.45690  0.48460  0.06680  1.0000
  H   H71       1.0  0.45690  0.01540  0.56680  1.0000
  H   H72       1.0  0.54310  0.51540  0.93320  1.0000
  C   C129      1.0  0.18190  0.17710  0.28410  1.0000
  C   C130      1.0  0.81810  0.67710  0.21590  1.0000
  C   C131      1.0  0.81810  0.82290  0.71590  1.0000
  C   C132      1.0  0.18190  0.32290  0.78410  1.0000
  C   C133      1.0  0.04550  0.49470  0.37330  1.0000
  C   C134      1.0  0.95450  0.99470  0.12670  1.0000
  C   C135      1.0  0.95450  0.50530  0.62670  1.0000
  C   C136      1.0  0.04550  0.00530  0.87330  1.0000
  H   H73       1.0  0.02800  0.51450  0.40670  1.0000
  H   H74       1.0  0.97200  0.01450  0.09330  1.0000
  H   H75       1.0  0.97200  0.48550  0.59330  1.0000
  H   H76       1.0  0.02800  0.98550  0.90670  1.0000
  C   C137      1.0  0.66220  0.00920  0.33950  1.0000
  C   C138      1.0  0.33780  0.50920  0.16050  1.0000
  C   C139      1.0  0.33780  0.99080  0.66050  1.0000
  C   C140      1.0  0.66220  0.49080  0.83950  1.0000
  H   H77       1.0  0.71040  0.99280  0.33050  1.0000
  H   H78       1.0  0.28960  0.49280  0.16950  1.0000
  H   H79       1.0  0.28960  0.00720  0.66950  1.0000
  H   H80       1.0  0.71040  0.50720  0.83050  1.0000
  C   C141      1.0  0.52300  0.05810  0.36710  1.0000
  C   C142      1.0  0.47700  0.55810  0.13290  1.0000
  C   C143      1.0  0.47700  0.94190  0.63290  1.0000
  C   C144      1.0  0.52300  0.44190  0.86710  1.0000
  C   C145      1.0  0.56920  0.03930  0.10180  1.0000
  C   C146      1.0  0.43080  0.53930  0.39820  1.0000
  C   C147      1.0  0.43080  0.96070  0.89820  1.0000
  C   C148      1.0  0.56920  0.46070  0.60180  1.0000
  C   C149      1.0  0.00300  0.43170  0.90170  1.0000
  C   C150      1.0  0.99700  0.93170  0.59830  1.0000
  C   C151      1.0  0.99700  0.56830  0.09830  1.0000
  C   C152      1.0  0.00300  0.06830  0.40170  1.0000
  H   H81       1.0  0.00840  0.43890  0.85800  1.0000
  H   H82       1.0  0.99160  0.93890  0.64200  1.0000
  H   H83       1.0  0.99160  0.56110  0.14200  1.0000
  H   H84       1.0  0.00840  0.06110  0.35800  1.0000
  O   O61       1.0  0.19500  0.42950  0.91700  1.0000
  O   O62       1.0  0.80500  0.92950  0.58300  1.0000
  O   O63       1.0  0.80500  0.57050  0.08300  1.0000
  O   O64       1.0  0.19500  0.07050  0.41700  1.0000
  C   C153      1.0  0.61270  0.07190  0.06280  1.0000
  C   C154      1.0  0.38730  0.57190  0.43720  1.0000
  C   C155      1.0  0.38730  0.92810  0.93720  1.0000
  C   C156      1.0  0.61270  0.42810  0.56280  1.0000
  H   H85       1.0  0.61190  0.11420  0.06190  1.0000
  H   H86       1.0  0.38810  0.61420  0.43810  1.0000
  H   H87       1.0  0.38810  0.88580  0.93810  1.0000
  H   H88       1.0  0.61190  0.38580  0.56190  1.0000
  C   C157      1.0  0.91100  0.43260  0.97110  1.0000
  C   C158      1.0  0.08900  0.93260  0.52890  1.0000
  C   C159      1.0  0.08900  0.56740  0.02890  1.0000
  C   C160      1.0  0.91100  0.06740  0.47110  1.0000
  H   H89       1.0  0.85520  0.44000  0.97400  1.0000
  H   H90       1.0  0.14480  0.94000  0.52600  1.0000
  H   H91       1.0  0.14480  0.56000  0.02600  1.0000
  H   H92       1.0  0.85520  0.06000  0.47400  1.0000
  C   C161      1.0  0.11600  0.51820  0.35640  1.0000
  C   C162      1.0  0.88400  0.01820  0.14360  1.0000
  C   C163      1.0  0.88400  0.48180  0.64360  1.0000
  C   C164      1.0  0.11600  0.98180  0.85640  1.0000
  H   H93       1.0  0.14720  0.55280  0.37980  1.0000
  H   H94       1.0  0.85280  0.05280  0.12020  1.0000
  H   H95       1.0  0.85280  0.44720  0.62020  1.0000
  H   H96       1.0  0.14720  0.94720  0.87980  1.0000
  C   C165      1.0  0.98670  0.41070  0.03330  1.0000
  C   C166      1.0  0.01330  0.91070  0.46670  1.0000
  C   C167      1.0  0.01330  0.58930  0.96670  1.0000
  C   C168      1.0  0.98670  0.08930  0.53330  1.0000
  C   C169      1.0  0.63280  0.97990  0.38560  1.0000
  C   C170      1.0  0.36720  0.47990  0.11440  1.0000
  C   C171      1.0  0.36720  0.02010  0.61440  1.0000
  C   C172      1.0  0.63280  0.52010  0.88560  1.0000
  H   H97       1.0  0.65980  0.94340  0.40680  1.0000
  H   H98       1.0  0.34020  0.44340  0.09320  1.0000
  H   H99       1.0  0.34020  0.05660  0.59320  1.0000
  H   H100      1.0  0.65980  0.55660  0.90680  1.0000
  C   C173      1.0  0.92150  0.44230  0.90820  1.0000
  C   C174      1.0  0.07850  0.94230  0.59180  1.0000
  C   C175      1.0  0.07850  0.55770  0.09180  1.0000
  C   C176      1.0  0.92150  0.05770  0.40820  1.0000
  H   H101      1.0  0.87230  0.45660  0.86820  1.0000
  H   H102      1.0  0.12770  0.95660  0.63180  1.0000
  H   H103      1.0  0.12770  0.54340  0.13180  1.0000
  H   H104      1.0  0.87230  0.04340  0.36820  1.0000
  C   C177      1.0  0.13930  0.48990  0.30490  1.0000
  C   C178      1.0  0.86070  0.98990  0.19510  1.0000
  C   C179      1.0  0.86070  0.51010  0.69510  1.0000
  C   C180      1.0  0.13930  0.01010  0.80490  1.0000
  H   H105      1.0  0.18590  0.50620  0.29370  1.0000
  H   H106      1.0  0.81410  0.00620  0.20630  1.0000
  H   H107      1.0  0.81410  0.49380  0.70630  1.0000
  H   H108      1.0  0.18590  0.99380  0.79370  1.0000
  C   C181      1.0  0.57070  0.97450  0.10270  1.0000
  C   C182      1.0  0.42930  0.47450  0.39730  1.0000
  C   C183      1.0  0.42930  0.02550  0.89730  1.0000
  C   C184      1.0  0.57070  0.52550  0.60270  1.0000
  H   H109      1.0  0.54560  0.95300  0.13020  1.0000
  H   H110      1.0  0.45440  0.45300  0.36980  1.0000
  H   H111      1.0  0.45440  0.04700  0.86980  1.0000
  H   H112      1.0  0.54560  0.54700  0.63020  1.0000
  C   C185      1.0  0.65430  0.97510  0.02690  1.0000
  C   C186      1.0  0.34570  0.47510  0.47310  1.0000
  C   C187      1.0  0.34570  0.02490  0.97310  1.0000
  C   C188      1.0  0.65430  0.52490  0.52690  1.0000
  H   H113      1.0  0.68400  0.95360  0.00280  1.0000
  H   H114      1.0  0.31600  0.45360  0.49720  1.0000
  H   H115      1.0  0.31600  0.04640  0.99720  1.0000
  H   H116      1.0  0.68400  0.54640  0.50280  1.0000
  C   C189      1.0  0.60970  0.94400  0.06250  1.0000
  C   C190      1.0  0.39030  0.44400  0.43750  1.0000
  C   C191      1.0  0.39030  0.05600  0.93750  1.0000
  C   C192      1.0  0.60970  0.55600  0.56250  1.0000
  H   H117      1.0  0.60580  0.90180  0.05930  1.0000
  H   H118      1.0  0.39420  0.40180  0.44070  1.0000
  H   H119      1.0  0.39420  0.09820  0.94070  1.0000
  H   H120      1.0  0.60580  0.59820  0.55930  1.0000
