data_image0
_chemical_formula_structural       In4C2H2C2H2O22C2H2O2C6H2C6H4C10O2C4H2C4H2C2H4C4H2C2H2C8H2C2H2C2N2C2H2C4H2C2H2C2H4C4H2C2H2C2H2C2H2C2H2N2C2H2C4H2C4H2C2H2C2H4O4C2O2C2
_chemical_formula_sum              "In4 C96 H60 O32 N4"
_cell_length_a       9.9183
_cell_length_b       22.93
_cell_length_c       15.082
_cell_angle_alpha    90
_cell_angle_beta     103.957
_cell_angle_gamma    90

_space_group_name_H-M_alt    "P 1"
_space_group_IT_number       1

loop_
  _space_group_symop_operation_xyz
  'x, y, z'

loop_
  _atom_site_type_symbol
  _atom_site_label
  _atom_site_symmetry_multiplicity
  _atom_site_fract_x
  _atom_site_fract_y
  _atom_site_fract_z
  _atom_site_occupancy
  In  In1       1.0  0.54521  0.92005  0.63848  1.0000
  In  In2       1.0  0.45479  0.42005  0.36152  1.0000
  In  In3       1.0  0.06404  0.15088  0.17455  1.0000
  In  In4       1.0  0.93596  0.65088  0.82545  1.0000
  C   C1        1.0  0.97600  0.19540  0.84190  1.0000
  C   C2        1.0  0.02400  0.69540  0.15810  1.0000
  H   H1        1.0  0.98890  0.15530  0.84770  1.0000
  H   H2        1.0  0.01110  0.65530  0.15230  1.0000
  C   C3        1.0  0.65300  0.87920  0.97020  1.0000
  C   C4        1.0  0.34700  0.37920  0.02980  1.0000
  H   H3        1.0  0.65100  0.91970  0.96590  1.0000
  H   H4        1.0  0.34900  0.41970  0.03410  1.0000
  O   O1        1.0  0.03120  0.14890  0.01660  1.0000
  O   O2        1.0  0.96880  0.64890  0.98340  1.0000
  O   O3        1.0  0.77840  0.91260  0.63780  1.0000
  O   O4        1.0  0.22160  0.41260  0.36220  1.0000
  O   O5        1.0  0.60130  0.93010  0.79620  1.0000
  O   O6        1.0  0.39870  0.43010  0.20380  1.0000
  O   O7        1.0  0.68690  0.99760  0.64050  1.0000
  O   O8        1.0  0.31310  0.49760  0.35950  1.0000
  O   O9        1.0  0.91520  0.08260  0.16510  1.0000
  O   O10       1.0  0.08480  0.58260  0.83490  1.0000
  O   O11       1.0  0.11320  0.14060  0.33330  1.0000
  O   O12       1.0  0.88680  0.64060  0.66670  1.0000
  O   O13       1.0  0.30800  0.91120  0.65130  1.0000
  O   O14       1.0  0.69200  0.41120  0.34870  1.0000
  O   O15       1.0  0.39630  0.99330  0.62530  1.0000
  O   O16       1.0  0.60370  0.49330  0.37470  1.0000
  O   O17       1.0  0.19750  0.07180  0.17220  1.0000
  O   O18       1.0  0.80250  0.57180  0.82780  1.0000
  O   O19       1.0  0.81110  0.16500  0.18310  1.0000
  O   O20       1.0  0.18890  0.66500  0.81690  1.0000
  O   O21       1.0  0.09930  0.22470  0.27170  1.0000
  O   O22       1.0  0.90070  0.72470  0.72830  1.0000
  C   C5        1.0  0.04320  0.96580  0.63840  1.0000
  C   C6        1.0  0.95680  0.46580  0.36160  1.0000
  H   H5        1.0  0.04130  0.92560  0.63000  1.0000
  H   H6        1.0  0.95870  0.42560  0.37000  1.0000
  O   O23       1.0  0.59030  0.84300  0.73420  1.0000
  O   O24       1.0  0.40970  0.34300  0.26580  1.0000
  C   C7        1.0  0.15970  0.99960  0.64370  1.0000
  C   C8        1.0  0.84030  0.49960  0.35630  1.0000
  C   C9        1.0  0.18540  0.21600  0.59880  1.0000
  C   C10       1.0  0.81460  0.71600  0.40120  1.0000
  C   C11       1.0  0.55500  0.10590  0.17640  1.0000
  C   C12       1.0  0.44500  0.60590  0.82360  1.0000
  H   H7        1.0  0.55570  0.14600  0.18620  1.0000
  H   H8        1.0  0.44430  0.64600  0.81380  1.0000
  C   C13       1.0  0.63650  0.84660  0.89390  1.0000
  C   C14       1.0  0.36350  0.34660  0.10610  1.0000
  C   C15       1.0  0.43720  0.07680  0.17000  1.0000
  C   C16       1.0  0.56280  0.57680  0.83000  1.0000
  C   C17       1.0  0.19030  0.18300  0.68390  1.0000
  C   C18       1.0  0.80970  0.68300  0.31610  1.0000
  H   H9        1.0  0.26810  0.15610  0.69480  1.0000
  H   H10       1.0  0.73190  0.65610  0.30520  1.0000
  H   H11       1.0  0.20500  0.20990  0.73490  1.0000
  H   H12       1.0  0.79500  0.70990  0.26510  1.0000
  C   C19       1.0  0.92590  0.99910  0.64710  1.0000
  C   C20       1.0  0.07410  0.49910  0.35290  1.0000
  C   C21       1.0  0.29440  0.96660  0.63900  1.0000
  C   C22       1.0  0.70560  0.46660  0.36100  1.0000
  C   C23       1.0  0.67340  0.85210  0.05760  1.0000
  C   C24       1.0  0.32660  0.35210  0.94240  1.0000
  C   C25       1.0  0.61180  0.87430  0.80680  1.0000
  C   C26       1.0  0.38820  0.37430  0.19320  1.0000
  C   C27       1.0  0.95380  0.22250  0.75890  1.0000
  C   C28       1.0  0.04620  0.72250  0.24110  1.0000
  O   O25       1.0  0.00390  0.22990  0.08240  1.0000
  O   O26       1.0  0.99610  0.72990  0.91760  1.0000
  C   C29       1.0  0.67820  0.07860  0.16900  1.0000
  C   C30       1.0  0.32180  0.57860  0.83100  1.0000
  C   C31       1.0  0.21650  0.27320  0.59800  1.0000
  C   C32       1.0  0.78350  0.77320  0.40200  1.0000
  H   H13       1.0  0.24860  0.29110  0.65440  1.0000
  H   H14       1.0  0.75140  0.79110  0.34560  1.0000
  C   C33       1.0  0.97850  0.23130  0.91820  1.0000
  C   C34       1.0  0.02150  0.73130  0.08180  1.0000
  C   C35       1.0  0.67680  0.01770  0.15290  1.0000
  C   C36       1.0  0.32320  0.51770  0.84710  1.0000
  H   H15       1.0  0.75540  0.99970  0.14190  1.0000
  H   H16       1.0  0.24460  0.49970  0.85810  1.0000
  C   C37       1.0  0.67660  0.89160  0.13920  1.0000
  C   C38       1.0  0.32340  0.39160  0.86080  1.0000
  H   H17       1.0  0.69420  0.86770  0.19390  1.0000
  H   H18       1.0  0.30580  0.36770  0.80610  1.0000
  H   H19       1.0  0.75410  0.91840  0.14540  1.0000
  H   H20       1.0  0.24590  0.41840  0.85460  1.0000
  C   C39       1.0  0.15160  0.22280  0.43130  1.0000
  C   C40       1.0  0.84840  0.72280  0.56870  1.0000
  C   C41       1.0  0.64930  0.78690  0.90150  1.0000
  C   C42       1.0  0.35070  0.28690  0.09850  1.0000
  H   H21       1.0  0.63910  0.76520  0.84820  1.0000
  H   H22       1.0  0.36090  0.26520  0.15180  1.0000
  C   C43       1.0  0.15320  0.19030  0.51390  1.0000
  C   C44       1.0  0.84680  0.69030  0.48610  1.0000
  H   H23       1.0  0.13180  0.15070  0.50940  1.0000
  H   H24       1.0  0.86820  0.65070  0.49060  1.0000
  C   C45       1.0  0.00590  0.19810  0.01560  1.0000
  C   C46       1.0  0.99410  0.69810  0.98440  1.0000
  C   C47       1.0  0.80850  0.11200  0.17420  1.0000
  C   C48       1.0  0.19150  0.61200  0.82580  1.0000
  C   C49       1.0  0.78900  0.96820  0.64330  1.0000
  C   C50       1.0  0.21100  0.46820  0.35670  1.0000
  C   C51       1.0  0.67680  0.79040  0.06280  1.0000
  C   C52       1.0  0.32320  0.29040  0.93720  1.0000
  H   H25       1.0  0.67850  0.77230  0.11830  1.0000
  H   H26       1.0  0.32150  0.27230  0.88170  1.0000
  C   C53       1.0  0.18940  0.28170  0.44140  1.0000
  C   C54       1.0  0.81060  0.78170  0.55860  1.0000
  H   H27       1.0  0.20290  0.30310  0.39190  1.0000
  H   H28       1.0  0.79710  0.80310  0.60810  1.0000
  C   C55       1.0  0.05820  0.08910  0.66390  1.0000
  C   C56       1.0  0.94180  0.58910  0.33610  1.0000
  N   N1        1.0  0.06320  0.15060  0.67900  1.0000
  N   N2        1.0  0.93680  0.65060  0.32100  1.0000
  C   C57       1.0  0.93160  0.05610  0.65580  1.0000
  C   C58       1.0  0.06840  0.55610  0.34420  1.0000
  H   H29       1.0  0.85050  0.07620  0.65690  1.0000
  H   H30       1.0  0.14950  0.57620  0.34310  1.0000
  C   C59       1.0  0.55600  0.98310  0.15320  1.0000
  C   C60       1.0  0.44400  0.48310  0.84680  1.0000
  C   C61       1.0  0.67750  0.75650  0.98650  1.0000
  C   C62       1.0  0.32250  0.25650  0.01350  1.0000
  H   H31       1.0  0.69510  0.71660  0.99060  1.0000
  H   H32       1.0  0.30490  0.21660  0.00940  1.0000
  C   C63       1.0  0.43580  0.01410  0.16090  1.0000
  C   C64       1.0  0.56420  0.51410  0.83910  1.0000
  H   H33       1.0  0.35450  0.99370  0.16020  1.0000
  H   H34       1.0  0.64550  0.49370  0.83980  1.0000
  C   C65       1.0  0.93480  0.18590  0.66970  1.0000
  C   C66       1.0  0.06520  0.68590  0.33030  1.0000
  H   H35       1.0  0.85440  0.16060  0.66210  1.0000
  H   H36       1.0  0.14560  0.66060  0.33790  1.0000
  H   H37       1.0  0.92160  0.21130  0.61690  1.0000
  H   H38       1.0  0.07840  0.71130  0.38310  1.0000
  C   C67       1.0  0.12060  0.19350  0.34180  1.0000
  C   C68       1.0  0.87940  0.69350  0.65820  1.0000
  C   C69       1.0  0.95660  0.31360  0.83200  1.0000
  C   C70       1.0  0.04340  0.81360  0.16800  1.0000
  H   H39       1.0  0.96130  0.35400  0.82910  1.0000
  H   H40       1.0  0.03870  0.85400  0.17090  1.0000
  C   C71       1.0  0.94180  0.28330  0.75020  1.0000
  C   C72       1.0  0.05820  0.78330  0.24980  1.0000
  H   H41       1.0  0.92510  0.30200  0.69390  1.0000
  H   H42       1.0  0.07490  0.80200  0.30610  1.0000
  C   C73       1.0  0.20580  0.30670  0.52390  1.0000
  C   C74       1.0  0.79420  0.80670  0.47610  1.0000
  H   H43       1.0  0.20970  0.34710  0.52950  1.0000
  H   H44       1.0  0.79030  0.84710  0.47050  1.0000
  C   C75       1.0  0.96460  0.29110  0.91100  1.0000
  C   C76       1.0  0.03540  0.79110  0.08900  1.0000
  H   H45       1.0  0.96110  0.31410  0.96120  1.0000
  H   H46       1.0  0.03890  0.81410  0.03880  1.0000
  C   C77       1.0  0.16580  0.05700  0.65270  1.0000
  C   C78       1.0  0.83420  0.55700  0.34730  1.0000
  H   H47       1.0  0.24820  0.07580  0.65130  1.0000
  H   H48       1.0  0.75180  0.57580  0.34870  1.0000
  N   N3        1.0  0.55330  0.92500  0.13530  1.0000
  N   N4        1.0  0.44670  0.42500  0.86470  1.0000
  C   C79       1.0  0.41370  0.79510  0.21030  1.0000
  C   C80       1.0  0.58630  0.29510  0.78970  1.0000
  H   H49       1.0  0.40780  0.77650  0.15470  1.0000
  H   H50       1.0  0.59220  0.27650  0.84530  1.0000
  C   C81       1.0  0.43060  0.85430  0.21590  1.0000
  C   C82       1.0  0.56940  0.35430  0.78410  1.0000
  C   C83       1.0  0.44070  0.88050  0.29850  1.0000
  C   C84       1.0  0.55930  0.38050  0.70150  1.0000
  H   H51       1.0  0.44160  0.92110  0.30020  1.0000
  H   H52       1.0  0.55840  0.42110  0.69980  1.0000
  C   C85       1.0  0.44920  0.85290  0.37540  1.0000
  C   C86       1.0  0.55080  0.35290  0.62460  1.0000
  C   C87       1.0  0.40500  0.76250  0.28550  1.0000
  C   C88       1.0  0.59500  0.26250  0.71450  1.0000
  H   H53       1.0  0.38350  0.72300  0.27980  1.0000
  H   H54       1.0  0.61650  0.22300  0.72020  1.0000
  C   C89       1.0  0.43060  0.79110  0.37340  1.0000
  C   C90       1.0  0.56940  0.29110  0.62660  1.0000
  H   H55       1.0  0.43470  0.77000  0.42670  1.0000
  H   H56       1.0  0.56530  0.27000  0.57330  1.0000
  C   C91       1.0  0.43510  0.88670  0.13000  1.0000
  C   C92       1.0  0.56490  0.38670  0.87000  1.0000
  H   H57       1.0  0.43390  0.85830  0.08210  1.0000
  H   H58       1.0  0.56610  0.35830  0.91790  1.0000
  H   H59       1.0  0.35110  0.90980  0.11160  1.0000
  H   H60       1.0  0.64890  0.40980  0.88840  1.0000
  O   O27       1.0  0.50420  0.93450  0.47830  1.0000
  O   O28       1.0  0.49580  0.43450  0.52170  1.0000
  O   O29       1.0  0.49090  0.84890  0.54080  1.0000
  O   O30       1.0  0.50910  0.34890  0.45920  1.0000
  C   C93       1.0  0.48090  0.87780  0.46360  1.0000
  C   C94       1.0  0.51910  0.37780  0.53640  1.0000
  O   O31       1.0  0.29730  0.15800  0.18300  1.0000
  O   O32       1.0  0.70270  0.65800  0.81700  1.0000
  C   C95       1.0  0.30280  0.10200  0.17490  1.0000
  C   C96       1.0  0.69720  0.60200  0.82510  1.0000
