data_image0
_chemical_formula_structural       U4Si4O32C12H4C4H4C8H4C8H4C16H4C4H4C8H4C4H4C4H4C4H4C4H4C4H4C4H4C4H4C4H4C12H4C4H4
_chemical_formula_sum              "U4 Si4 O32 C108 H68"
_cell_length_a       10.5954
_cell_length_b       20.837
_cell_length_c       15.498
_cell_angle_alpha    90
_cell_angle_beta     92.8528
_cell_angle_gamma    90

_space_group_name_H-M_alt    "P 1"
_space_group_IT_number       1

loop_
  _space_group_symop_operation_xyz
  'x, y, z'

loop_
  _atom_site_type_symbol
  _atom_site_label
  _atom_site_symmetry_multiplicity
  _atom_site_fract_x
  _atom_site_fract_y
  _atom_site_fract_z
  _atom_site_occupancy
  U   U1        1.0  0.50207  0.17592  0.16048  1.0000
  U   U2        1.0  0.49793  0.67592  0.33952  1.0000
  U   U3        1.0  0.49793  0.82408  0.83952  1.0000
  U   U4        1.0  0.50207  0.32408  0.66048  1.0000
  Si  Si1       1.0  0.84589  0.44559  0.16706  1.0000
  Si  Si2       1.0  0.15411  0.94559  0.33294  1.0000
  Si  Si3       1.0  0.15411  0.55441  0.83294  1.0000
  Si  Si4       1.0  0.84589  0.05441  0.66706  1.0000
  O   O1        1.0  0.36590  0.13015  0.13410  1.0000
  O   O2        1.0  0.63410  0.63015  0.36590  1.0000
  O   O3        1.0  0.63410  0.86985  0.86590  1.0000
  O   O4        1.0  0.36590  0.36985  0.63410  1.0000
  O   O5        1.0  0.63880  0.22184  0.18680  1.0000
  O   O6        1.0  0.36120  0.72184  0.31320  1.0000
  O   O7        1.0  0.36120  0.77816  0.81320  1.0000
  O   O8        1.0  0.63880  0.27816  0.68680  1.0000
  O   O9        1.0  0.62630  0.39717  0.57490  1.0000
  O   O10       1.0  0.37370  0.89717  0.92510  1.0000
  O   O11       1.0  0.37370  0.60283  0.42510  1.0000
  O   O12       1.0  0.62630  0.10283  0.07490  1.0000
  O   O13       1.0  0.54830  0.31218  0.50890  1.0000
  O   O14       1.0  0.45170  0.81218  0.99110  1.0000
  O   O15       1.0  0.45170  0.68782  0.49110  1.0000
  O   O16       1.0  0.54830  0.18782  0.00890  1.0000
  O   O17       1.0  0.38810  0.26888  0.08930  1.0000
  O   O18       1.0  0.61190  0.76888  0.41070  1.0000
  O   O19       1.0  0.61190  0.73112  0.91070  1.0000
  O   O20       1.0  0.38810  0.23112  0.58930  1.0000
  O   O21       1.0  0.36560  0.25481  0.22690  1.0000
  O   O22       1.0  0.63440  0.75481  0.27310  1.0000
  O   O23       1.0  0.63440  0.74519  0.77310  1.0000
  O   O24       1.0  0.36560  0.24519  0.72690  1.0000
  O   O25       1.0  0.48180  0.33569  0.81700  1.0000
  O   O26       1.0  0.51820  0.83569  0.68300  1.0000
  O   O27       1.0  0.51820  0.66431  0.18300  1.0000
  O   O28       1.0  0.48180  0.16431  0.31700  1.0000
  O   O29       1.0  0.58720  0.41198  0.75610  1.0000
  O   O30       1.0  0.41280  0.91198  0.74390  1.0000
  O   O31       1.0  0.41280  0.58802  0.24390  1.0000
  O   O32       1.0  0.58720  0.08802  0.25610  1.0000
  C   C1        1.0  0.32680  0.27970  0.15640  1.0000
  C   C2        1.0  0.67320  0.77970  0.34360  1.0000
  C   C3        1.0  0.67320  0.72030  0.84360  1.0000
  C   C4        1.0  0.32680  0.22030  0.65640  1.0000
  C   C5        1.0  0.20980  0.31830  0.15310  1.0000
  C   C6        1.0  0.79020  0.81830  0.34690  1.0000
  C   C7        1.0  0.79020  0.68170  0.84690  1.0000
  C   C8        1.0  0.20980  0.18170  0.65310  1.0000
  C   C9        1.0  0.13470  0.31580  0.22460  1.0000
  C   C10       1.0  0.86530  0.81580  0.27540  1.0000
  C   C11       1.0  0.86530  0.68420  0.77540  1.0000
  C   C12       1.0  0.13470  0.18420  0.72460  1.0000
  H   H1        1.0  0.15850  0.28870  0.27200  1.0000
  H   H2        1.0  0.84150  0.78870  0.22800  1.0000
  H   H3        1.0  0.84150  0.71130  0.72800  1.0000
  H   H4        1.0  0.15850  0.21130  0.77200  1.0000
  C   C13       1.0  0.02680  0.35210  0.22680  1.0000
  C   C14       1.0  0.97320  0.85210  0.27320  1.0000
  C   C15       1.0  0.97320  0.64790  0.77320  1.0000
  C   C16       1.0  0.02680  0.14790  0.72680  1.0000
  H   H5        1.0  0.97790  0.35020  0.27650  1.0000
  H   H6        1.0  0.02210  0.85020  0.22350  1.0000
  H   H7        1.0  0.02210  0.64980  0.72350  1.0000
  H   H8        1.0  0.97790  0.14980  0.77650  1.0000
  C   C17       1.0  0.98720  0.39150  0.15860  1.0000
  C   C18       1.0  0.01280  0.89150  0.34140  1.0000
  C   C19       1.0  0.01280  0.60850  0.84140  1.0000
  C   C20       1.0  0.98720  0.10850  0.65860  1.0000
  C   C21       1.0  0.06000  0.39170  0.08550  1.0000
  C   C22       1.0  0.94000  0.89170  0.41450  1.0000
  C   C23       1.0  0.94000  0.60830  0.91450  1.0000
  C   C24       1.0  0.06000  0.10830  0.58550  1.0000
  H   H9        1.0  0.03310  0.41680  0.03690  1.0000
  H   H10       1.0  0.96690  0.91680  0.46310  1.0000
  H   H11       1.0  0.96690  0.58320  0.96310  1.0000
  H   H12       1.0  0.03310  0.08320  0.53690  1.0000
  C   C25       1.0  0.55540  0.38350  0.82400  1.0000
  C   C26       1.0  0.44460  0.88350  0.67600  1.0000
  C   C27       1.0  0.44460  0.61650  0.17600  1.0000
  C   C28       1.0  0.55540  0.11650  0.32400  1.0000
  C   C29       1.0  0.17060  0.35600  0.08230  1.0000
  C   C30       1.0  0.82940  0.85600  0.41770  1.0000
  C   C31       1.0  0.82940  0.64400  0.91770  1.0000
  C   C32       1.0  0.17060  0.14400  0.58230  1.0000
  H   H13       1.0  0.21900  0.35730  0.03240  1.0000
  H   H14       1.0  0.78100  0.85730  0.46760  1.0000
  H   H15       1.0  0.78100  0.64270  0.96760  1.0000
  H   H16       1.0  0.21900  0.14270  0.53240  1.0000
  C   C33       1.0  0.76830  0.42320  0.26910  1.0000
  C   C34       1.0  0.23170  0.92320  0.23090  1.0000
  C   C35       1.0  0.23170  0.57680  0.73090  1.0000
  C   C36       1.0  0.76830  0.07680  0.76910  1.0000
  C   C37       1.0  0.73980  0.43150  0.06780  1.0000
  C   C38       1.0  0.26020  0.93150  0.43220  1.0000
  C   C39       1.0  0.26020  0.56850  0.93220  1.0000
  C   C40       1.0  0.73980  0.06850  0.56780  1.0000
  C   C41       1.0  0.90170  0.53040  0.17300  1.0000
  C   C42       1.0  0.09830  0.03040  0.32700  1.0000
  C   C43       1.0  0.09830  0.46960  0.82700  1.0000
  C   C44       1.0  0.90170  0.96960  0.67300  1.0000
  C   C45       1.0  0.02840  0.54700  0.16600  1.0000
  C   C46       1.0  0.97160  0.04700  0.33400  1.0000
  C   C47       1.0  0.97160  0.45300  0.83400  1.0000
  C   C48       1.0  0.02840  0.95300  0.66600  1.0000
  H   H17       1.0  0.08830  0.51430  0.15570  1.0000
  H   H18       1.0  0.91170  0.01430  0.34430  1.0000
  H   H19       1.0  0.91170  0.48570  0.84430  1.0000
  H   H20       1.0  0.08830  0.98570  0.65570  1.0000
  C   C49       1.0  0.62260  0.35640  0.97440  1.0000
  C   C50       1.0  0.37740  0.85640  0.52560  1.0000
  C   C51       1.0  0.37740  0.64360  0.02560  1.0000
  C   C52       1.0  0.62260  0.14360  0.47440  1.0000
  H   H21       1.0  0.58690  0.31500  0.96490  1.0000
  H   H22       1.0  0.41310  0.81500  0.53510  1.0000
  H   H23       1.0  0.41310  0.68500  0.03510  1.0000
  H   H24       1.0  0.58690  0.18500  0.46490  1.0000
  C   C53       1.0  0.61080  0.40290  0.91020  1.0000
  C   C54       1.0  0.38920  0.90290  0.58980  1.0000
  C   C55       1.0  0.38920  0.59710  0.08980  1.0000
  C   C56       1.0  0.61080  0.09710  0.41020  1.0000
  C   C57       1.0  0.65890  0.46370  0.92500  1.0000
  C   C58       1.0  0.34110  0.96370  0.57500  1.0000
  C   C59       1.0  0.34110  0.53630  0.07500  1.0000
  C   C60       1.0  0.65890  0.03630  0.42500  1.0000
  H   H25       1.0  0.64910  0.49590  0.88180  1.0000
  H   H26       1.0  0.35090  0.99590  0.61820  1.0000
  H   H27       1.0  0.35090  0.50410  0.11820  1.0000
  H   H28       1.0  0.64910  0.00410  0.38180  1.0000
  C   C61       1.0  0.72210  0.47730  0.00410  1.0000
  C   C62       1.0  0.27790  0.97730  0.49590  1.0000
  C   C63       1.0  0.27790  0.52270  0.99590  1.0000
  C   C64       1.0  0.72210  0.02270  0.50410  1.0000
  H   H29       1.0  0.75390  0.51940  0.01440  1.0000
  H   H30       1.0  0.24610  0.01940  0.48560  1.0000
  H   H31       1.0  0.24610  0.48060  0.98560  1.0000
  H   H32       1.0  0.75390  0.98060  0.51440  1.0000
  C   C65       1.0  0.81830  0.58050  0.18840  1.0000
  C   C66       1.0  0.18170  0.08050  0.31160  1.0000
  C   C67       1.0  0.18170  0.41950  0.81160  1.0000
  C   C68       1.0  0.81830  0.91950  0.68840  1.0000
  H   H33       1.0  0.73100  0.57100  0.19200  1.0000
  H   H34       1.0  0.26900  0.07100  0.30800  1.0000
  H   H35       1.0  0.26900  0.42900  0.80800  1.0000
  H   H36       1.0  0.73100  0.92900  0.69200  1.0000
  C   C69       1.0  0.85830  0.64340  0.19860  1.0000
  C   C70       1.0  0.14170  0.14340  0.30140  1.0000
  C   C71       1.0  0.14170  0.35660  0.80140  1.0000
  C   C72       1.0  0.85830  0.85660  0.69860  1.0000
  H   H37       1.0  0.79980  0.67630  0.21120  1.0000
  H   H38       1.0  0.20020  0.17630  0.28880  1.0000
  H   H39       1.0  0.20020  0.32370  0.78880  1.0000
  H   H40       1.0  0.79980  0.82370  0.71120  1.0000
  C   C73       1.0  0.98440  0.65770  0.19020  1.0000
  C   C74       1.0  0.01560  0.15770  0.30980  1.0000
  C   C75       1.0  0.01560  0.34230  0.80980  1.0000
  C   C76       1.0  0.98440  0.84230  0.69020  1.0000
  H   H41       1.0  0.01280  0.70090  0.19600  1.0000
  H   H42       1.0  0.98720  0.20090  0.30400  1.0000
  H   H43       1.0  0.98720  0.29910  0.80400  1.0000
  H   H44       1.0  0.01280  0.79910  0.69600  1.0000
  C   C77       1.0  0.76020  0.46550  0.33900  1.0000
  C   C78       1.0  0.23980  0.96550  0.16100  1.0000
  C   C79       1.0  0.23980  0.53450  0.66100  1.0000
  C   C80       1.0  0.76020  0.03450  0.83900  1.0000
  H   H45       1.0  0.78960  0.50830  0.33360  1.0000
  H   H46       1.0  0.21040  0.00830  0.16640  1.0000
  H   H47       1.0  0.21040  0.49170  0.66640  1.0000
  H   H48       1.0  0.78960  0.99170  0.83360  1.0000
  C   C81       1.0  0.71020  0.44620  0.41580  1.0000
  C   C82       1.0  0.28980  0.94620  0.08420  1.0000
  C   C83       1.0  0.28980  0.55380  0.58420  1.0000
  C   C84       1.0  0.71020  0.05380  0.91580  1.0000
  H   H49       1.0  0.70490  0.47590  0.46190  1.0000
  H   H50       1.0  0.29510  0.97590  0.03810  1.0000
  H   H51       1.0  0.29510  0.52410  0.53810  1.0000
  H   H52       1.0  0.70490  0.02410  0.96190  1.0000
  C   C85       1.0  0.72510  0.36050  0.28100  1.0000
  C   C86       1.0  0.27490  0.86050  0.21900  1.0000
  C   C87       1.0  0.27490  0.63950  0.71900  1.0000
  C   C88       1.0  0.72510  0.13950  0.78100  1.0000
  H   H53       1.0  0.72960  0.33050  0.23520  1.0000
  H   H54       1.0  0.27040  0.83050  0.26480  1.0000
  H   H55       1.0  0.27040  0.66950  0.76480  1.0000
  H   H56       1.0  0.72960  0.16950  0.73520  1.0000
  C   C89       1.0  0.67580  0.34110  0.35800  1.0000
  C   C90       1.0  0.32420  0.84110  0.14200  1.0000
  C   C91       1.0  0.32420  0.65890  0.64200  1.0000
  C   C92       1.0  0.67580  0.15890  0.85800  1.0000
  H   H57       1.0  0.64740  0.29820  0.36430  1.0000
  H   H58       1.0  0.35260  0.79820  0.13570  1.0000
  H   H59       1.0  0.35260  0.70180  0.63570  1.0000
  H   H60       1.0  0.64740  0.20180  0.86430  1.0000
  C   C93       1.0  0.61250  0.36370  0.50710  1.0000
  C   C94       1.0  0.38750  0.86370  0.99290  1.0000
  C   C95       1.0  0.38750  0.63630  0.49290  1.0000
  C   C96       1.0  0.61250  0.13630  0.00710  1.0000
  C   C97       1.0  0.66790  0.38400  0.42570  1.0000
  C   C98       1.0  0.33210  0.88400  0.07430  1.0000
  C   C99       1.0  0.33210  0.61600  0.57430  1.0000
  C   C100      1.0  0.66790  0.11600  0.92570  1.0000
  C   C101      1.0  0.68710  0.37070  0.05260  1.0000
  C   C102      1.0  0.31290  0.87070  0.44740  1.0000
  C   C103      1.0  0.31290  0.62930  0.94740  1.0000
  C   C104      1.0  0.68710  0.12930  0.55260  1.0000
  H   H61       1.0  0.69540  0.33870  0.09620  1.0000
  H   H62       1.0  0.30460  0.83870  0.40380  1.0000
  H   H63       1.0  0.30460  0.66130  0.90380  1.0000
  H   H64       1.0  0.69540  0.16130  0.59620  1.0000
  C   C105      1.0  0.06850  0.61020  0.17380  1.0000
  C   C106      1.0  0.93150  0.11020  0.32620  1.0000
  C   C107      1.0  0.93150  0.38980  0.82620  1.0000
  C   C108      1.0  0.06850  0.88980  0.67380  1.0000
  H   H65       1.0  0.15500  0.62040  0.16770  1.0000
  H   H66       1.0  0.84500  0.12040  0.33230  1.0000
  H   H67       1.0  0.84500  0.37960  0.83230  1.0000
  H   H68       1.0  0.15500  0.87960  0.66770  1.0000
