data_image0
_chemical_formula_structural       C6H2C2H2C4H2C2CuN2O8
_chemical_formula_sum              "C14 H6 Cu1 N2 O8"
_cell_length_a       7.3979
_cell_length_b       14.413
_cell_length_c       15.7932
_cell_angle_alpha    75.612
_cell_angle_beta     82.51
_cell_angle_gamma    78.59

_space_group_name_H-M_alt    "P 1"
_space_group_IT_number       1

loop_
  _space_group_symop_operation_xyz
  'x, y, z'

loop_
  _atom_site_type_symbol
  _atom_site_label
  _atom_site_symmetry_multiplicity
  _atom_site_fract_x
  _atom_site_fract_y
  _atom_site_fract_z
  _atom_site_occupancy
  C   C1        1.0  0.24900  0.16320  0.01360  1.0000
  C   C2        1.0  0.75100  0.83680  0.98640  1.0000
  C   C3        1.0  0.28170  0.16900  0.91610  1.0000
  C   C4        1.0  0.71830  0.83100  0.08390  1.0000
  C   C5        1.0  0.19960  0.24440  0.85350  1.0000
  C   C6        1.0  0.80040  0.75560  0.14650  1.0000
  H   H1        1.0  0.11730  0.29610  0.86950  1.0000
  H   H2        1.0  0.88270  0.70390  0.13050  1.0000
  C   C7        1.0  0.24200  0.24160  0.76660  1.0000
  C   C8        1.0  0.75800  0.75840  0.23340  1.0000
  H   H3        1.0  0.19010  0.29270  0.72320  1.0000
  H   H4        1.0  0.80990  0.70730  0.27680  1.0000
  C   C9        1.0  0.36180  0.16300  0.74310  1.0000
  C   C10       1.0  0.63820  0.83700  0.25690  1.0000
  C   C11       1.0  0.43980  0.08930  0.81020  1.0000
  C   C12       1.0  0.56020  0.91070  0.18980  1.0000
  H   H5        1.0  0.52060  0.03620  0.79590  1.0000
  H   H6        1.0  0.47940  0.96380  0.20410  1.0000
  C   C13       1.0  0.40970  0.15580  0.64850  1.0000
  C   C14       1.0  0.59030  0.84420  0.35150  1.0000
  Cu  Cu1       1.0  0.50000  0.00000  0.00000  1.0000
  N   N1        1.0  0.40200  0.09280  0.89460  1.0000
  N   N2        1.0  0.59800  0.90720  0.10540  1.0000
  O   O1        1.0  0.34050  0.08850  0.06244  1.0000
  O   O2        1.0  0.65950  0.91150  0.93756  1.0000
  O   O3        1.0  0.14200  0.22810  0.04110  1.0000
  O   O4        1.0  0.85800  0.77190  0.95890  1.0000
  O   O5        1.0  0.50080  0.07970  0.63290  1.0000
  O   O6        1.0  0.49920  0.92030  0.36710  1.0000
  O   O7        1.0  0.35100  0.23020  0.59124  1.0000
  O   O8        1.0  0.64900  0.76980  0.40876  1.0000
