data_image0
_chemical_formula_structural       Mg4C4H4O12C4H4O4C4H4O8
_chemical_formula_sum              "Mg4 C12 H12 O24"
_cell_length_a       13.99
_cell_length_b       8.12
_cell_length_c       8.803
_cell_angle_alpha    90
_cell_angle_beta     121.02
_cell_angle_gamma    90

_space_group_name_H-M_alt    "P 1"
_space_group_IT_number       1

loop_
  _space_group_symop_operation_xyz
  'x, y, z'

loop_
  _atom_site_type_symbol
  _atom_site_label
  _atom_site_symmetry_multiplicity
  _atom_site_fract_x
  _atom_site_fract_y
  _atom_site_fract_z
  _atom_site_occupancy
  Mg  Mg1       1.0  0.08573  0.24860  0.67990  1.0000
  Mg  Mg2       1.0  0.08573  0.75140  0.17990  1.0000
  Mg  Mg3       1.0  0.58573  0.74860  0.67990  1.0000
  Mg  Mg4       1.0  0.58573  0.25140  0.17990  1.0000
  C   C1        1.0  0.05030  0.01480  0.91440  1.0000
  C   C2        1.0  0.05030  0.98520  0.41440  1.0000
  C   C3        1.0  0.55030  0.51480  0.91440  1.0000
  C   C4        1.0  0.55030  0.48520  0.41440  1.0000
  H   H1        1.0  0.06500  0.93300  0.85400  1.0000
  H   H2        1.0  0.06500  0.06700  0.35400  1.0000
  H   H3        1.0  0.56500  0.43300  0.85400  1.0000
  H   H4        1.0  0.56500  0.56700  0.35400  1.0000
  O   O1        1.0  0.04070  0.16000  0.85690  1.0000
  O   O2        1.0  0.04070  0.84000  0.35690  1.0000
  O   O3        1.0  0.54070  0.66000  0.85690  1.0000
  O   O4        1.0  0.54070  0.34000  0.35690  1.0000
  O   O5        1.0  0.04910  0.97450  0.05170  1.0000
  O   O6        1.0  0.04910  0.02550  0.55170  1.0000
  O   O7        1.0  0.54910  0.47450  0.05170  1.0000
  O   O8        1.0  0.54910  0.52550  0.55170  1.0000
  O   O9        1.0  0.13410  0.34300  0.50530  1.0000
  O   O10       1.0  0.13410  0.65700  0.00530  1.0000
  O   O11       1.0  0.63410  0.84300  0.50530  1.0000
  O   O12       1.0  0.63410  0.15700  0.00530  1.0000
  C   C5        1.0  0.10380  0.47630  0.42450  1.0000
  C   C6        1.0  0.10380  0.52370  0.92450  1.0000
  C   C7        1.0  0.60380  0.97630  0.42450  1.0000
  C   C8        1.0  0.60380  0.02370  0.92450  1.0000
  H   H5        1.0  0.05600  0.53200  0.44800  1.0000
  H   H6        1.0  0.05600  0.46800  0.94800  1.0000
  H   H7        1.0  0.55600  0.03200  0.44800  1.0000
  H   H8        1.0  0.55600  0.96800  0.94800  1.0000
  O   O13       1.0  0.13290  0.53060  0.32060  1.0000
  O   O14       1.0  0.13290  0.46940  0.82060  1.0000
  O   O15       1.0  0.63290  0.03060  0.32060  1.0000
  O   O16       1.0  0.63290  0.96940  0.82060  1.0000
  C   C9        1.0  0.33670  0.22720  0.93010  1.0000
  C   C10       1.0  0.33670  0.77280  0.43010  1.0000
  C   C11       1.0  0.83670  0.72720  0.93010  1.0000
  C   C12       1.0  0.83670  0.27280  0.43010  1.0000
  H   H9        1.0  0.32500  0.34600  0.93600  1.0000
  H   H10       1.0  0.32500  0.65400  0.43600  1.0000
  H   H11       1.0  0.82500  0.84600  0.93600  1.0000
  H   H12       1.0  0.82500  0.15400  0.43600  1.0000
  O   O17       1.0  0.24560  0.15530  0.84170  1.0000
  O   O18       1.0  0.24560  0.84470  0.34170  1.0000
  O   O19       1.0  0.74560  0.65530  0.84170  1.0000
  O   O20       1.0  0.74560  0.34470  0.34170  1.0000
  O   O21       1.0  0.42760  0.15810  0.01960  1.0000
  O   O22       1.0  0.42760  0.84190  0.51960  1.0000
  O   O23       1.0  0.92760  0.65810  0.01960  1.0000
  O   O24       1.0  0.92760  0.34190  0.51960  1.0000
