data_image0
_chemical_formula_structural       Ga12P4O12C4H12P4O12C4H12P4O12C4H12P4O12C4H12O16C8
_chemical_formula_sum              "Ga12 P16 O64 C24 H48"
_cell_length_a       8.753
_cell_length_b       16.3427
_cell_length_c       14.7522
_cell_angle_alpha    90
_cell_angle_beta     93.284
_cell_angle_gamma    90

_space_group_name_H-M_alt    "P 1"
_space_group_IT_number       1

loop_
  _space_group_symop_operation_xyz
  'x, y, z'

loop_
  _atom_site_type_symbol
  _atom_site_label
  _atom_site_symmetry_multiplicity
  _atom_site_fract_x
  _atom_site_fract_y
  _atom_site_fract_z
  _atom_site_occupancy
  Ga  Ga1       1.0  0.45084  0.21994  0.78647  1.0000
  Ga  Ga2       1.0  0.04916  0.71994  0.71353  1.0000
  Ga  Ga3       1.0  0.54916  0.78006  0.21353  1.0000
  Ga  Ga4       1.0  0.95084  0.28006  0.28647  1.0000
  Ga  Ga5       1.0  0.47057  0.48447  0.71523  1.0000
  Ga  Ga6       1.0  0.02943  0.98447  0.78477  1.0000
  Ga  Ga7       1.0  0.52943  0.51553  0.28477  1.0000
  Ga  Ga8       1.0  0.97057  0.01553  0.21523  1.0000
  Ga  Ga9       1.0  0.86036  0.30316  0.72898  1.0000
  Ga  Ga10      1.0  0.63964  0.80316  0.77102  1.0000
  Ga  Ga11      1.0  0.13964  0.69684  0.27102  1.0000
  Ga  Ga12      1.0  0.36036  0.19684  0.22898  1.0000
  P   P1        1.0  0.73737  0.62013  0.75146  1.0000
  P   P2        1.0  0.76263  0.12013  0.74854  1.0000
  P   P3        1.0  0.26263  0.37987  0.24854  1.0000
  P   P4        1.0  0.23737  0.87987  0.25146  1.0000
  O   O1        1.0  0.65570  0.54881  0.70203  1.0000
  O   O2        1.0  0.84430  0.04881  0.79797  1.0000
  O   O3        1.0  0.34430  0.45119  0.29797  1.0000
  O   O4        1.0  0.15570  0.95119  0.20203  1.0000
  O   O5        1.0  0.62960  0.69458  0.74723  1.0000
  O   O6        1.0  0.87040  0.19458  0.75277  1.0000
  O   O7        1.0  0.37040  0.30542  0.25277  1.0000
  O   O8        1.0  0.12960  0.80542  0.24723  1.0000
  O   O9        1.0  0.88810  0.63647  0.70885  1.0000
  O   O10       1.0  0.61190  0.13647  0.79115  1.0000
  O   O11       1.0  0.11190  0.36353  0.29115  1.0000
  O   O12       1.0  0.38810  0.86353  0.20885  1.0000
  C   C1        1.0  0.77250  0.59440  0.86770  1.0000
  C   C2        1.0  0.72750  0.09440  0.63230  1.0000
  C   C3        1.0  0.22750  0.40560  0.13230  1.0000
  C   C4        1.0  0.27250  0.90560  0.36770  1.0000
  H   H1        1.0  0.82480  0.64000  0.89950  1.0000
  H   H2        1.0  0.67520  0.14000  0.60050  1.0000
  H   H3        1.0  0.17520  0.36000  0.10050  1.0000
  H   H4        1.0  0.32480  0.86000  0.39950  1.0000
  H   H5        1.0  0.83700  0.54540  0.87270  1.0000
  H   H6        1.0  0.66300  0.04540  0.62730  1.0000
  H   H7        1.0  0.16300  0.45460  0.12730  1.0000
  H   H8        1.0  0.33700  0.95460  0.37270  1.0000
  H   H9        1.0  0.67500  0.58360  0.89500  1.0000
  H   H10       1.0  0.82500  0.08360  0.60500  1.0000
  H   H11       1.0  0.32500  0.41640  0.10500  1.0000
  H   H12       1.0  0.17500  0.91640  0.39500  1.0000
  P   P5        1.0  0.19426  0.36730  0.76806  1.0000
  P   P6        1.0  0.30574  0.86730  0.73194  1.0000
  P   P7        1.0  0.80574  0.63270  0.23194  1.0000
  P   P8        1.0  0.69426  0.13270  0.26806  1.0000
  O   O13       1.0  0.27780  0.42626  0.70963  1.0000
  O   O14       1.0  0.22220  0.92626  0.79037  1.0000
  O   O15       1.0  0.72220  0.57374  0.29037  1.0000
  O   O16       1.0  0.77780  0.07374  0.20963  1.0000
  O   O17       1.0  0.27870  0.29079  0.79701  1.0000
  O   O18       1.0  0.22130  0.79079  0.70299  1.0000
  O   O19       1.0  0.72130  0.70921  0.20299  1.0000
  O   O20       1.0  0.77870  0.20921  0.29701  1.0000
  O   O21       1.0  0.04790  0.34317  0.70986  1.0000
  O   O22       1.0  0.45210  0.84317  0.79014  1.0000
  O   O23       1.0  0.95210  0.65683  0.29014  1.0000
  O   O24       1.0  0.54790  0.15683  0.20986  1.0000
  C   C5        1.0  0.14080  0.41900  0.86780  1.0000
  C   C6        1.0  0.35920  0.91900  0.63220  1.0000
  C   C7        1.0  0.85920  0.58100  0.13220  1.0000
  C   C8        1.0  0.64080  0.08100  0.36780  1.0000
  H   H13       1.0  0.07930  0.38240  0.90360  1.0000
  H   H14       1.0  0.42070  0.88240  0.59640  1.0000
  H   H15       1.0  0.92070  0.61760  0.09640  1.0000
  H   H16       1.0  0.57930  0.11760  0.40360  1.0000
  H   H17       1.0  0.08070  0.46780  0.85050  1.0000
  H   H18       1.0  0.41930  0.96780  0.64950  1.0000
  H   H19       1.0  0.91930  0.53220  0.14950  1.0000
  H   H20       1.0  0.58070  0.03220  0.35050  1.0000
  H   H21       1.0  0.23300  0.43540  0.90410  1.0000
  H   H22       1.0  0.26700  0.93540  0.59590  1.0000
  H   H23       1.0  0.76700  0.56460  0.09590  1.0000
  H   H24       1.0  0.73300  0.06460  0.40410  1.0000
  P   P9        1.0  0.64141  0.36493  0.87174  1.0000
  P   P10       1.0  0.85859  0.86493  0.62826  1.0000
  P   P11       1.0  0.35859  0.63507  0.12826  1.0000
  P   P12       1.0  0.14141  0.13507  0.37174  1.0000
  O   O25       1.0  0.79590  0.35622  0.82762  1.0000
  O   O26       1.0  0.70410  0.85622  0.67238  1.0000
  O   O27       1.0  0.20410  0.64378  0.17238  1.0000
  O   O28       1.0  0.29590  0.14378  0.32762  1.0000
  O   O29       1.0  0.54390  0.42851  0.82270  1.0000
  O   O30       1.0  0.95610  0.92851  0.67730  1.0000
  O   O31       1.0  0.45610  0.57149  0.17730  1.0000
  O   O32       1.0  0.04390  0.07149  0.32270  1.0000
  O   O33       1.0  0.56320  0.28197  0.87904  1.0000
  O   O34       1.0  0.93680  0.78197  0.62096  1.0000
  O   O35       1.0  0.43680  0.71803  0.12096  1.0000
  O   O36       1.0  0.06320  0.21803  0.37904  1.0000
  C   C9        1.0  0.68640  0.39860  0.98430  1.0000
  C   C10       1.0  0.81360  0.89860  0.51570  1.0000
  C   C11       1.0  0.31360  0.60140  0.01570  1.0000
  C   C12       1.0  0.18640  0.10140  0.48430  1.0000
  H   H25       1.0  0.59160  0.40860  0.01480  1.0000
  H   H26       1.0  0.90840  0.90860  0.48520  1.0000
  H   H27       1.0  0.40840  0.59140  0.98520  1.0000
  H   H28       1.0  0.09160  0.09140  0.51480  1.0000
  H   H29       1.0  0.74600  0.44930  0.98290  1.0000
  H   H30       1.0  0.75400  0.94930  0.51710  1.0000
  H   H31       1.0  0.25400  0.55070  0.01710  1.0000
  H   H32       1.0  0.24600  0.05070  0.48290  1.0000
  H   H33       1.0  0.74660  0.35650  0.01740  1.0000
  H   H34       1.0  0.75340  0.85650  0.48260  1.0000
  H   H35       1.0  0.25340  0.64350  0.98260  1.0000
  H   H36       1.0  0.24660  0.14350  0.51740  1.0000
  P   P13       1.0  0.58554  0.33011  0.61199  1.0000
  P   P14       1.0  0.91446  0.83011  0.88801  1.0000
  P   P15       1.0  0.41446  0.66989  0.38801  1.0000
  P   P16       1.0  0.08554  0.16989  0.11199  1.0000
  O   O37       1.0  0.76370  0.32773  0.61914  1.0000
  O   O38       1.0  0.73630  0.82773  0.88086  1.0000
  O   O39       1.0  0.23630  0.67227  0.38086  1.0000
  O   O40       1.0  0.26370  0.17227  0.11914  1.0000
  O   O41       1.0  0.53330  0.41838  0.61661  1.0000
  O   O42       1.0  0.96670  0.91838  0.88339  1.0000
  O   O43       1.0  0.46670  0.58162  0.38339  1.0000
  O   O44       1.0  0.03330  0.08162  0.11661  1.0000
  O   O45       1.0  0.53380  0.27611  0.68736  1.0000
  O   O46       1.0  0.96620  0.77611  0.81264  1.0000
  O   O47       1.0  0.46620  0.72389  0.31264  1.0000
  O   O48       1.0  0.03380  0.22389  0.18736  1.0000
  C   C13       1.0  0.52430  0.28899  0.50510  1.0000
  C   C14       1.0  0.97570  0.78899  0.99490  1.0000
  C   C15       1.0  0.47570  0.71101  0.49490  1.0000
  C   C16       1.0  0.02430  0.21101  0.00510  1.0000
  H   H37       1.0  0.41420  0.27770  0.50410  1.0000
  H   H38       1.0  0.08580  0.77770  0.99590  1.0000
  H   H39       1.0  0.58580  0.72230  0.49590  1.0000
  H   H40       1.0  0.91420  0.22230  0.00410  1.0000
  H   H41       1.0  0.57970  0.23800  0.49480  1.0000
  H   H42       1.0  0.92030  0.73800  0.00520  1.0000
  H   H43       1.0  0.42030  0.76200  0.50520  1.0000
  H   H44       1.0  0.07970  0.26200  0.99480  1.0000
  H   H45       1.0  0.54490  0.32840  0.45730  1.0000
  H   H46       1.0  0.95510  0.82840  0.04270  1.0000
  H   H47       1.0  0.45510  0.67160  0.54270  1.0000
  H   H48       1.0  0.04490  0.17160  0.95730  1.0000
  O   O49       1.0  0.31950  0.15216  0.69723  1.0000
  O   O50       1.0  0.18050  0.65216  0.80277  1.0000
  O   O51       1.0  0.68050  0.84784  0.30277  1.0000
  O   O52       1.0  0.81950  0.34784  0.19723  1.0000
  O   O53       1.0  0.34510  0.14829  0.87789  1.0000
  O   O54       1.0  0.15490  0.64829  0.62211  1.0000
  O   O55       1.0  0.65490  0.85171  0.12211  1.0000
  O   O56       1.0  0.84510  0.35171  0.37789  1.0000
  O   O57       1.0  0.12040  0.06581  0.69828  1.0000
  O   O58       1.0  0.37960  0.56581  0.80172  1.0000
  O   O59       1.0  0.87960  0.93419  0.30172  1.0000
  O   O60       1.0  0.62040  0.43419  0.19828  1.0000
  O   O61       1.0  0.14830  0.06021  0.87794  1.0000
  O   O62       1.0  0.35170  0.56021  0.62206  1.0000
  O   O63       1.0  0.85170  0.93979  0.12206  1.0000
  O   O64       1.0  0.64830  0.43979  0.37794  1.0000
  C   C17       1.0  0.22440  0.10863  0.73600  1.0000
  C   C18       1.0  0.27560  0.60863  0.76400  1.0000
  C   C19       1.0  0.77560  0.89137  0.26400  1.0000
  C   C20       1.0  0.72440  0.39137  0.23600  1.0000
  C   C21       1.0  0.24070  0.10643  0.83990  1.0000
  C   C22       1.0  0.25930  0.60643  0.66010  1.0000
  C   C23       1.0  0.75930  0.89357  0.16010  1.0000
  C   C24       1.0  0.74070  0.39357  0.33990  1.0000
