data_image0
_chemical_formula_structural       U8Br16C16H16C24O24N8O16C8
_chemical_formula_sum              "U8 Br16 C48 H16 O40 N8"
_cell_length_a       8.3785
_cell_length_b       19.437
_cell_length_c       22.0629
_cell_angle_alpha    90
_cell_angle_beta     90
_cell_angle_gamma    90

_space_group_name_H-M_alt    "P 1"
_space_group_IT_number       1

loop_
  _space_group_symop_operation_xyz
  'x, y, z'

loop_
  _atom_site_type_symbol
  _atom_site_label
  _atom_site_symmetry_multiplicity
  _atom_site_fract_x
  _atom_site_fract_y
  _atom_site_fract_z
  _atom_site_occupancy
  U   U1        1.0  0.75000  0.77720  0.50000  1.0000
  U   U2        1.0  0.25000  0.72280  0.50000  1.0000
  U   U3        1.0  0.75000  0.22280  0.00000  1.0000
  U   U4        1.0  0.25000  0.27720  0.00000  1.0000
  U   U5        1.0  0.25000  0.22280  0.50000  1.0000
  U   U6        1.0  0.75000  0.27720  0.50000  1.0000
  U   U7        1.0  0.25000  0.77720  0.00000  1.0000
  U   U8        1.0  0.75000  0.72280  0.00000  1.0000
  Br  Br1       1.0  0.63767  0.49232  0.62162  1.0000
  Br  Br2       1.0  0.36233  0.00768  0.62162  1.0000
  Br  Br3       1.0  0.63767  0.50768  0.87838  1.0000
  Br  Br4       1.0  0.36233  0.99232  0.87838  1.0000
  Br  Br5       1.0  0.13767  0.99232  0.12162  1.0000
  Br  Br6       1.0  0.86233  0.50768  0.12162  1.0000
  Br  Br7       1.0  0.13767  0.00768  0.37838  1.0000
  Br  Br8       1.0  0.86233  0.49232  0.37838  1.0000
  Br  Br9       1.0  0.36233  0.50768  0.37838  1.0000
  Br  Br10      1.0  0.63767  0.99232  0.37838  1.0000
  Br  Br11      1.0  0.36233  0.49232  0.12162  1.0000
  Br  Br12      1.0  0.63767  0.00768  0.12162  1.0000
  Br  Br13      1.0  0.86233  0.00768  0.87838  1.0000
  Br  Br14      1.0  0.13767  0.49232  0.87838  1.0000
  Br  Br15      1.0  0.86233  0.99232  0.62162  1.0000
  Br  Br16      1.0  0.13767  0.50768  0.62162  1.0000
  C   C1        1.0  0.70970  0.60890  0.54970  1.0000
  C   C2        1.0  0.29030  0.89110  0.54970  1.0000
  C   C3        1.0  0.70970  0.39110  0.95030  1.0000
  C   C4        1.0  0.29030  0.10890  0.95030  1.0000
  C   C5        1.0  0.20970  0.10890  0.04970  1.0000
  C   C6        1.0  0.79030  0.39110  0.04970  1.0000
  C   C7        1.0  0.20970  0.89110  0.45030  1.0000
  C   C8        1.0  0.79030  0.60890  0.45030  1.0000
  C   C9        1.0  0.29030  0.39110  0.45030  1.0000
  C   C10       1.0  0.70970  0.10890  0.45030  1.0000
  C   C11       1.0  0.29030  0.60890  0.04970  1.0000
  C   C12       1.0  0.70970  0.89110  0.04970  1.0000
  C   C13       1.0  0.79030  0.89110  0.95030  1.0000
  C   C14       1.0  0.20970  0.60890  0.95030  1.0000
  C   C15       1.0  0.79030  0.10890  0.54970  1.0000
  C   C16       1.0  0.20970  0.39110  0.54970  1.0000
  H   H1        1.0  0.68300  0.63320  0.58460  1.0000
  H   H2        1.0  0.31700  0.86680  0.58460  1.0000
  H   H3        1.0  0.68300  0.36680  0.91540  1.0000
  H   H4        1.0  0.31700  0.13320  0.91540  1.0000
  H   H5        1.0  0.18300  0.13320  0.08460  1.0000
  H   H6        1.0  0.81700  0.36680  0.08460  1.0000
  H   H7        1.0  0.18300  0.86680  0.41540  1.0000
  H   H8        1.0  0.81700  0.63320  0.41540  1.0000
  H   H9        1.0  0.31700  0.36680  0.41540  1.0000
  H   H10       1.0  0.68300  0.13320  0.41540  1.0000
  H   H11       1.0  0.31700  0.63320  0.08460  1.0000
  H   H12       1.0  0.68300  0.86680  0.08460  1.0000
  H   H13       1.0  0.81700  0.86680  0.91540  1.0000
  H   H14       1.0  0.18300  0.63320  0.91540  1.0000
  H   H15       1.0  0.81700  0.13320  0.58460  1.0000
  H   H16       1.0  0.18300  0.36680  0.58460  1.0000
  C   C17       1.0  0.70630  0.53810  0.55120  1.0000
  C   C18       1.0  0.29370  0.96190  0.55120  1.0000
  C   C19       1.0  0.70630  0.46190  0.94880  1.0000
  C   C20       1.0  0.29370  0.03810  0.94880  1.0000
  C   C21       1.0  0.20630  0.03810  0.05120  1.0000
  C   C22       1.0  0.79370  0.46190  0.05120  1.0000
  C   C23       1.0  0.20630  0.96190  0.44880  1.0000
  C   C24       1.0  0.79370  0.53810  0.44880  1.0000
  C   C25       1.0  0.29370  0.46190  0.44880  1.0000
  C   C26       1.0  0.70630  0.03810  0.44880  1.0000
  C   C27       1.0  0.29370  0.53810  0.05120  1.0000
  C   C28       1.0  0.70630  0.96190  0.05120  1.0000
  C   C29       1.0  0.79370  0.96190  0.94880  1.0000
  C   C30       1.0  0.20630  0.53810  0.94880  1.0000
  C   C31       1.0  0.79370  0.03810  0.55120  1.0000
  C   C32       1.0  0.20630  0.46190  0.55120  1.0000
  C   C33       1.0  0.75000  0.50050  0.50000  1.0000
  C   C34       1.0  0.25000  0.99950  0.50000  1.0000
  C   C35       1.0  0.75000  0.49950  0.00000  1.0000
  C   C36       1.0  0.25000  0.00050  0.00000  1.0000
  C   C37       1.0  0.25000  0.49950  0.50000  1.0000
  C   C38       1.0  0.75000  0.00050  0.50000  1.0000
  C   C39       1.0  0.25000  0.50050  0.00000  1.0000
  C   C40       1.0  0.75000  0.99950  0.00000  1.0000
  O   O1        1.0  0.81910  0.77560  0.57540  1.0000
  O   O2        1.0  0.18090  0.72440  0.57540  1.0000
  O   O3        1.0  0.81910  0.22440  0.92460  1.0000
  O   O4        1.0  0.18090  0.27560  0.92460  1.0000
  O   O5        1.0  0.31910  0.27560  0.07540  1.0000
  O   O6        1.0  0.68090  0.22440  0.07540  1.0000
  O   O7        1.0  0.31910  0.72440  0.42460  1.0000
  O   O8        1.0  0.68090  0.77560  0.42460  1.0000
  O   O9        1.0  0.18090  0.22440  0.42460  1.0000
  O   O10       1.0  0.81910  0.27560  0.42460  1.0000
  O   O11       1.0  0.18090  0.77560  0.07540  1.0000
  O   O12       1.0  0.81910  0.72440  0.07540  1.0000
  O   O13       1.0  0.68090  0.72440  0.92460  1.0000
  O   O14       1.0  0.31910  0.77560  0.92460  1.0000
  O   O15       1.0  0.68090  0.27560  0.57540  1.0000
  O   O16       1.0  0.31910  0.22440  0.57540  1.0000
  O   O17       1.0  0.50000  0.75000  0.53540  1.0000
  O   O18       1.0  0.50000  0.25000  0.96460  1.0000
  O   O19       1.0  0.00000  0.25000  0.03540  1.0000
  O   O20       1.0  0.00000  0.75000  0.46460  1.0000
  O   O21       1.0  0.50000  0.25000  0.46460  1.0000
  O   O22       1.0  0.50000  0.75000  0.03540  1.0000
  O   O23       1.0  0.00000  0.75000  0.96460  1.0000
  O   O24       1.0  0.00000  0.25000  0.53540  1.0000
  N   N1        1.0  0.75000  0.64360  0.50000  1.0000
  N   N2        1.0  0.25000  0.85640  0.50000  1.0000
  N   N3        1.0  0.75000  0.35640  0.00000  1.0000
  N   N4        1.0  0.25000  0.14360  0.00000  1.0000
  N   N5        1.0  0.25000  0.35640  0.50000  1.0000
  N   N6        1.0  0.75000  0.14360  0.50000  1.0000
  N   N7        1.0  0.25000  0.64360  0.00000  1.0000
  N   N8        1.0  0.75000  0.85640  0.00000  1.0000
  O   O25       1.0  0.62980  0.39210  0.48060  1.0000
  O   O26       1.0  0.37020  0.10790  0.48060  1.0000
  O   O27       1.0  0.62980  0.60790  0.01940  1.0000
  O   O28       1.0  0.37020  0.89210  0.01940  1.0000
  O   O29       1.0  0.12980  0.89210  0.98060  1.0000
  O   O30       1.0  0.87020  0.60790  0.98060  1.0000
  O   O31       1.0  0.12980  0.10790  0.51940  1.0000
  O   O32       1.0  0.87020  0.39210  0.51940  1.0000
  O   O33       1.0  0.37020  0.60790  0.51940  1.0000
  O   O34       1.0  0.62980  0.89210  0.51940  1.0000
  O   O35       1.0  0.37020  0.39210  0.98060  1.0000
  O   O36       1.0  0.62980  0.10790  0.98060  1.0000
  O   O37       1.0  0.87020  0.10790  0.01940  1.0000
  O   O38       1.0  0.12980  0.39210  0.01940  1.0000
  O   O39       1.0  0.87020  0.89210  0.48060  1.0000
  O   O40       1.0  0.12980  0.60790  0.48060  1.0000
  C   C41       1.0  0.75000  0.42290  0.50000  1.0000
  C   C42       1.0  0.25000  0.07710  0.50000  1.0000
  C   C43       1.0  0.75000  0.57710  0.00000  1.0000
  C   C44       1.0  0.25000  0.92290  0.00000  1.0000
  C   C45       1.0  0.25000  0.57710  0.50000  1.0000
  C   C46       1.0  0.75000  0.92290  0.50000  1.0000
  C   C47       1.0  0.25000  0.42290  0.00000  1.0000
  C   C48       1.0  0.75000  0.07710  0.00000  1.0000
