data_image0
_chemical_formula_structural       CoF12C2H2C2H2C2H2C2H2C2H2O2C2H2C2H2O2C14H2C2O2C2O2C2Co2F6O2F6C2H2C2H2O4C2H2C2H2C12H2C2H2C2H2C6H2C2O2C2
_chemical_formula_sum              "Co3 F24 C68 H32 O16"
_cell_length_a       12.761
_cell_length_b       13.2384
_cell_length_c       13.7262
_cell_angle_alpha    83.886
_cell_angle_beta     89.474
_cell_angle_gamma    66.422

_space_group_name_H-M_alt    "P 1"
_space_group_IT_number       1

loop_
  _space_group_symop_operation_xyz
  'x, y, z'

loop_
  _atom_site_type_symbol
  _atom_site_label
  _atom_site_symmetry_multiplicity
  _atom_site_fract_x
  _atom_site_fract_y
  _atom_site_fract_z
  _atom_site_occupancy
  Co  Co1       1.0  0.00000  0.50000  0.50000  1.0000
  F   F1        1.0  0.62230  0.25180  0.15530  1.0000
  F   F2        1.0  0.37770  0.74820  0.84470  1.0000
  F   F3        1.0  0.75800  0.11860  0.09690  1.0000
  F   F4        1.0  0.24200  0.88140  0.90310  1.0000
  F   F5        1.0  0.52410  0.19760  0.31350  1.0000
  F   F6        1.0  0.47590  0.80240  0.68650  1.0000
  F   F7        1.0  0.56570  0.02580  0.30450  1.0000
  F   F8        1.0  0.43430  0.97420  0.69550  1.0000
  F   F9        1.0  0.63790  0.07380  0.42210  1.0000
  F   F10       1.0  0.36210  0.92620  0.57790  1.0000
  F   F11       1.0  0.59370  0.11130  0.12130  1.0000
  F   F12       1.0  0.40630  0.88870  0.87870  1.0000
  C   C1        1.0  0.79600  0.29700  0.37880  1.0000
  C   C2        1.0  0.20400  0.70300  0.62120  1.0000
  H   H1        1.0  0.76350  0.35520  0.41680  1.0000
  H   H2        1.0  0.23650  0.64480  0.58320  1.0000
  C   C3        1.0  0.89430  0.11950  0.27370  1.0000
  C   C4        1.0  0.10570  0.88050  0.72630  1.0000
  H   H3        1.0  0.92900  0.05780  0.23990  1.0000
  H   H4        1.0  0.07100  0.94220  0.76010  1.0000
  C   C5        1.0  0.95490  0.18060  0.29580  1.0000
  C   C6        1.0  0.04510  0.81940  0.70420  1.0000
  H   H5        1.0  0.02940  0.16080  0.27520  1.0000
  H   H6        1.0  0.97060  0.83920  0.72480  1.0000
  C   C7        1.0  0.85400  0.90720  0.35200  1.0000
  C   C8        1.0  0.14600  0.09280  0.64800  1.0000
  H   H7        1.0  0.85090  0.94670  0.40480  1.0000
  H   H8        1.0  0.14910  0.05330  0.59520  1.0000
  C   C9        1.0  0.79380  0.90170  0.19040  1.0000
  C   C10       1.0  0.20620  0.09830  0.80960  1.0000
  H   H9        1.0  0.74820  0.93630  0.13410  1.0000
  H   H10       1.0  0.25180  0.06370  0.86590  1.0000
  O   O1        1.0  0.93790  0.40150  0.43350  1.0000
  O   O2        1.0  0.06210  0.59850  0.56650  1.0000
  C   C11       1.0  0.86620  0.78960  0.19600  1.0000
  C   C12       1.0  0.13380  0.21040  0.80400  1.0000
  H   H11       1.0  0.87020  0.75050  0.14270  1.0000
  H   H12       1.0  0.12980  0.24950  0.85730  1.0000
  C   C13       1.0  0.92320  0.79510  0.35920  1.0000
  C   C14       1.0  0.07680  0.20490  0.64080  1.0000
  H   H13       1.0  0.96390  0.75920  0.41750  1.0000
  H   H14       1.0  0.03610  0.24080  0.58250  1.0000
  O   O3        1.0  0.04880  0.33540  0.30860  1.0000
  O   O4        1.0  0.95120  0.66460  0.69140  1.0000
  C   C15       1.0  0.60940  0.09590  0.32630  1.0000
  C   C16       1.0  0.39060  0.90410  0.67370  1.0000
  C   C17       1.0  0.96980  0.34110  0.36670  1.0000
  C   C18       1.0  0.03020  0.65890  0.63330  1.0000
  C   C19       1.0  0.90660  0.27050  0.34810  1.0000
  C   C20       1.0  0.09340  0.72950  0.65190  1.0000
  C   C21       1.0  0.78920  0.96130  0.26710  1.0000
  C   C22       1.0  0.21080  0.03870  0.73290  1.0000
  C   C23       1.0  0.78210  0.14910  0.30120  1.0000
  C   C24       1.0  0.21790  0.85090  0.69880  1.0000
  C   C25       1.0  0.71360  0.08700  0.26470  1.0000
  C   C26       1.0  0.28640  0.91300  0.73530  1.0000
  C   C27       1.0  0.73340  0.24000  0.35460  1.0000
  C   C28       1.0  0.26660  0.76000  0.64540  1.0000
  H   H15       1.0  0.65820  0.26160  0.37370  1.0000
  H   H16       1.0  0.34180  0.73840  0.62630  1.0000
  C   C29       1.0  0.67360  0.14140  0.15620  1.0000
  C   C30       1.0  0.32640  0.85860  0.84380  1.0000
  O   O5        1.0  0.04330  0.56090  0.36710  1.0000
  O   O6        1.0  0.95670  0.43910  0.63290  1.0000
  C   C31       1.0  0.01160  0.61790  0.28670  1.0000
  C   C32       1.0  0.98840  0.38210  0.71330  1.0000
  O   O7        1.0  0.04930  0.57270  0.20930  1.0000
  O   O8        1.0  0.95070  0.42730  0.79070  1.0000
  C   C33       1.0  0.93180  0.73640  0.27960  1.0000
  C   C34       1.0  0.06820  0.26360  0.72040  1.0000
  Co  Co2       1.0  0.85342  0.58200  0.71491  1.0000
  Co  Co3       1.0  0.14658  0.41800  0.28509  1.0000
  F   F13       1.0  0.56250  0.25100  0.86740  1.0000
  F   F14       1.0  0.43750  0.74900  0.13260  1.0000
  F   F15       1.0  0.73340  0.24130  0.86810  1.0000
  F   F16       1.0  0.26660  0.75870  0.13190  1.0000
  F   F17       1.0  0.79610  0.12470  0.59760  1.0000
  F   F18       1.0  0.20390  0.87530  0.40240  1.0000
  O   O9        1.0  0.76980  0.70090  0.97730  1.0000
  O   O10       1.0  0.23020  0.29910  0.02270  1.0000
  F   F19       1.0  0.78140  0.27570  0.65440  1.0000
  F   F20       1.0  0.21860  0.72430  0.34560  1.0000
  F   F21       1.0  0.60510  0.36450  0.77020  1.0000
  F   F22       1.0  0.39490  0.63550  0.22980  1.0000
  F   F23       1.0  0.87280  0.11820  0.73790  1.0000
  F   F24       1.0  0.12720  0.88180  0.26210  1.0000
  C   C35       1.0  0.47110  0.20290  0.68280  1.0000
  C   C36       1.0  0.52890  0.79710  0.31720  1.0000
  H   H17       1.0  0.47520  0.15610  0.73960  1.0000
  H   H18       1.0  0.52480  0.84390  0.26040  1.0000
  C   C37       1.0  0.55550  0.29690  0.57420  1.0000
  C   C38       1.0  0.44450  0.70310  0.42580  1.0000
  H   H19       1.0  0.61620  0.31670  0.55810  1.0000
  H   H20       1.0  0.38380  0.68330  0.44190  1.0000
  O   O11       1.0  0.16660  0.37590  0.51420  1.0000
  O   O12       1.0  0.83340  0.62410  0.48580  1.0000
  O   O13       1.0  0.27120  0.37710  0.38350  1.0000
  O   O14       1.0  0.72880  0.62290  0.61650  1.0000
  C   C39       1.0  0.71350  0.87460  0.74630  1.0000
  C   C40       1.0  0.28650  0.12540  0.25370  1.0000
  H   H21       1.0  0.70930  0.82600  0.70400  1.0000
  H   H22       1.0  0.29070  0.17400  0.29600  1.0000
  C   C41       1.0  0.69020  0.98480  0.71060  1.0000
  C   C42       1.0  0.30980  0.01520  0.28940  1.0000
  H   H23       1.0  0.67070  0.00860  0.64450  1.0000
  H   H24       1.0  0.32930  0.99140  0.35550  1.0000
  C   C43       1.0  0.74290  0.83800  0.84410  1.0000
  C   C44       1.0  0.25710  0.16200  0.15590  1.0000
  C   C45       1.0  0.77980  0.17460  0.67960  1.0000
  C   C46       1.0  0.22020  0.82540  0.32040  1.0000
  C   C47       1.0  0.25800  0.36050  0.47400  1.0000
  C   C48       1.0  0.74200  0.63950  0.52600  1.0000
  C   C49       1.0  0.56460  0.22650  0.65830  1.0000
  C   C50       1.0  0.43540  0.77350  0.34170  1.0000
  C   C51       1.0  0.36530  0.31480  0.53850  1.0000
  C   C52       1.0  0.63470  0.68520  0.46150  1.0000
  C   C53       1.0  0.72770  0.02020  0.87000  1.0000
  C   C54       1.0  0.27230  0.97980  0.13000  1.0000
  H   H25       1.0  0.73460  0.06770  0.91250  1.0000
  H   H26       1.0  0.26540  0.93230  0.08750  1.0000
  C   C55       1.0  0.37090  0.24730  0.62480  1.0000
  C   C56       1.0  0.62910  0.75270  0.37520  1.0000
  H   H27       1.0  0.30820  0.23190  0.64350  1.0000
  H   H28       1.0  0.69180  0.76810  0.35650  1.0000
  C   C57       1.0  0.74920  0.91200  0.90450  1.0000
  C   C58       1.0  0.25080  0.08800  0.09550  1.0000
  H   H29       1.0  0.76850  0.88830  0.97060  1.0000
  H   H30       1.0  0.23150  0.11170  0.02940  1.0000
  C   C59       1.0  0.64220  0.25930  0.81000  1.0000
  C   C60       1.0  0.35780  0.74070  0.19000  1.0000
  C   C61       1.0  0.67080  0.17910  0.72950  1.0000
  C   C62       1.0  0.32920  0.82090  0.27050  1.0000
  C   C63       1.0  0.45890  0.33860  0.51360  1.0000
  C   C64       1.0  0.54110  0.66140  0.48640  1.0000
  H   H31       1.0  0.45650  0.38290  0.45560  1.0000
  H   H32       1.0  0.54350  0.61710  0.54440  1.0000
  C   C65       1.0  0.69570  0.05880  0.77200  1.0000
  C   C66       1.0  0.30430  0.94120  0.22800  1.0000
  O   O15       1.0  0.77410  0.65010  0.82980  1.0000
  O   O16       1.0  0.22590  0.34990  0.17020  1.0000
  C   C67       1.0  0.76540  0.72140  0.88610  1.0000
  C   C68       1.0  0.23460  0.27860  0.11390  1.0000
