data_image0
_chemical_formula_structural       Zn4O4Zn4O4S4O4S4O4S4N4O20N4O12C4H4C4H4C4H4C4H4C4H4C8H4C8H4C4H4
_chemical_formula_sum              "Zn8 O48 S12 N8 C40 H32"
_cell_length_a       15.179
_cell_length_b       12.95
_cell_length_c       17.48
_cell_angle_alpha    90
_cell_angle_beta     94.47
_cell_angle_gamma    90

_space_group_name_H-M_alt    "P 1"
_space_group_IT_number       1

loop_
  _space_group_symop_operation_xyz
  'x, y, z'

loop_
  _atom_site_type_symbol
  _atom_site_label
  _atom_site_symmetry_multiplicity
  _atom_site_fract_x
  _atom_site_fract_y
  _atom_site_fract_z
  _atom_site_occupancy
  Zn  Zn1       1.0  0.24395  0.36165  0.08210  1.0000
  Zn  Zn2       1.0  0.75605  0.86165  0.41790  1.0000
  Zn  Zn3       1.0  0.75605  0.63835  0.91790  1.0000
  Zn  Zn4       1.0  0.24395  0.13835  0.58210  1.0000
  O   O1        1.0  0.20100  0.36030  0.18400  1.0000
  O   O2        1.0  0.79900  0.86030  0.31600  1.0000
  O   O3        1.0  0.79900  0.63970  0.81600  1.0000
  O   O4        1.0  0.20100  0.13970  0.68400  1.0000
  Zn  Zn5       1.0  0.24724  0.32163  0.40627  1.0000
  Zn  Zn6       1.0  0.75276  0.82163  0.09373  1.0000
  Zn  Zn7       1.0  0.75276  0.67837  0.59373  1.0000
  Zn  Zn8       1.0  0.24724  0.17837  0.90627  1.0000
  O   O5        1.0  0.46190  0.13020  0.49430  1.0000
  O   O6        1.0  0.53810  0.63020  0.00570  1.0000
  O   O7        1.0  0.53810  0.86980  0.50570  1.0000
  O   O8        1.0  0.46190  0.36980  0.99430  1.0000
  S   S1        1.0  0.40323  0.21672  0.50471  1.0000
  S   S2        1.0  0.59677  0.71672  0.99529  1.0000
  S   S3        1.0  0.59677  0.78328  0.49529  1.0000
  S   S4        1.0  0.40323  0.28328  0.00471  1.0000
  O   O9        1.0  0.28740  0.35000  0.30510  1.0000
  O   O10       1.0  0.71260  0.85000  0.19490  1.0000
  O   O11       1.0  0.71260  0.65000  0.69490  1.0000
  O   O12       1.0  0.28740  0.15000  0.80510  1.0000
  S   S5        1.0  0.24183  0.42448  0.24942  1.0000
  S   S6        1.0  0.75817  0.92448  0.25058  1.0000
  S   S7        1.0  0.75817  0.57552  0.75058  1.0000
  S   S8        1.0  0.24183  0.07552  0.74942  1.0000
  O   O13       1.0  0.02220  0.30850  0.48720  1.0000
  O   O14       1.0  0.97780  0.80850  0.01280  1.0000
  O   O15       1.0  0.97780  0.69150  0.51280  1.0000
  O   O16       1.0  0.02220  0.19150  0.98720  1.0000
  S   S9        1.0  0.08881  0.23160  0.47178  1.0000
  S   S10       1.0  0.91119  0.73160  0.02822  1.0000
  S   S11       1.0  0.91119  0.76840  0.52822  1.0000
  S   S12       1.0  0.08881  0.26840  0.97178  1.0000
  N   N1        1.0  0.24400  0.50740  0.04450  1.0000
  N   N2        1.0  0.75600  0.00740  0.45550  1.0000
  N   N3        1.0  0.75600  0.49260  0.95550  1.0000
  N   N4        1.0  0.24400  0.99260  0.54450  1.0000
  O   O17       1.0  0.33080  0.21430  0.44120  1.0000
  O   O18       1.0  0.66920  0.71430  0.05880  1.0000
  O   O19       1.0  0.66920  0.78570  0.55880  1.0000
  O   O20       1.0  0.33080  0.28570  0.94120  1.0000
  O   O21       1.0  0.12920  0.25840  0.39910  1.0000
  O   O22       1.0  0.87080  0.75840  0.10090  1.0000
  O   O23       1.0  0.87080  0.74160  0.60090  1.0000
  O   O24       1.0  0.12920  0.24160  0.89910  1.0000
  O   O25       1.0  0.05120  0.12850  0.46570  1.0000
  O   O26       1.0  0.94880  0.62850  0.03430  1.0000
  O   O27       1.0  0.94880  0.87150  0.53430  1.0000
  O   O28       1.0  0.05120  0.37150  0.96570  1.0000
  O   O29       1.0  0.35920  0.20330  0.57860  1.0000
  O   O30       1.0  0.64080  0.70330  0.92140  1.0000
  O   O31       1.0  0.64080  0.79670  0.42140  1.0000
  O   O32       1.0  0.35920  0.29670  0.07860  1.0000
  O   O33       1.0  0.16050  0.23840  0.53500  1.0000
  O   O34       1.0  0.83950  0.73840  0.96500  1.0000
  O   O35       1.0  0.83950  0.76160  0.46500  1.0000
  O   O36       1.0  0.16050  0.26160  0.03500  1.0000
  N   N5        1.0  0.24940  0.04250  0.96260  1.0000
  N   N6        1.0  0.75060  0.54250  0.53740  1.0000
  N   N7        1.0  0.75060  0.95750  0.03740  1.0000
  N   N8        1.0  0.24940  0.45750  0.46260  1.0000
  O   O37       1.0  0.17330  0.48020  0.28570  1.0000
  O   O38       1.0  0.82670  0.98020  0.21430  1.0000
  O   O39       1.0  0.82670  0.51980  0.71430  1.0000
  O   O40       1.0  0.17330  0.01980  0.78570  1.0000
  O   O41       1.0  0.30950  0.49120  0.22060  1.0000
  O   O42       1.0  0.69050  0.99120  0.27940  1.0000
  O   O43       1.0  0.69050  0.50880  0.77940  1.0000
  O   O44       1.0  0.30950  0.00880  0.72060  1.0000
  O   O45       1.0  0.44920  0.31480  0.50650  1.0000
  O   O46       1.0  0.55080  0.81480  0.99350  1.0000
  O   O47       1.0  0.55080  0.68520  0.49350  1.0000
  O   O48       1.0  0.44920  0.18520  0.00650  1.0000
  C   C1        1.0  0.32160  0.55920  0.04360  1.0000
  C   C2        1.0  0.67840  0.05920  0.45640  1.0000
  C   C3        1.0  0.67840  0.44080  0.95640  1.0000
  C   C4        1.0  0.32160  0.94080  0.54360  1.0000
  H   H1        1.0  0.37520  0.52120  0.05000  1.0000
  H   H2        1.0  0.62480  0.02120  0.45000  1.0000
  H   H3        1.0  0.62480  0.47880  0.95000  1.0000
  H   H4        1.0  0.37520  0.97880  0.55000  1.0000
  C   C5        1.0  0.16910  0.56260  0.03520  1.0000
  C   C6        1.0  0.83090  0.06260  0.46480  1.0000
  C   C7        1.0  0.83090  0.43740  0.96480  1.0000
  C   C8        1.0  0.16910  0.93740  0.53520  1.0000
  H   H5        1.0  0.11440  0.52740  0.03740  1.0000
  H   H6        1.0  0.88560  0.02740  0.46260  1.0000
  H   H7        1.0  0.88560  0.47260  0.96260  1.0000
  H   H8        1.0  0.11440  0.97260  0.53740  1.0000
  C   C9        1.0  0.16760  0.66820  0.02270  1.0000
  C   C10       1.0  0.83240  0.16820  0.47730  1.0000
  C   C11       1.0  0.83240  0.33180  0.97730  1.0000
  C   C12       1.0  0.16760  0.83180  0.52270  1.0000
  H   H9        1.0  0.11300  0.70380  0.01460  1.0000
  H   H10       1.0  0.88700  0.20380  0.48540  1.0000
  H   H11       1.0  0.88700  0.29620  0.98540  1.0000
  H   H12       1.0  0.11300  0.79620  0.51460  1.0000
  C   C13       1.0  0.32570  0.66430  0.03380  1.0000
  C   C14       1.0  0.67430  0.16430  0.46620  1.0000
  C   C15       1.0  0.67430  0.33570  0.96620  1.0000
  C   C16       1.0  0.32570  0.83570  0.53380  1.0000
  H   H13       1.0  0.38140  0.69800  0.03480  1.0000
  H   H14       1.0  0.61860  0.19800  0.46520  1.0000
  H   H15       1.0  0.61860  0.30200  0.96520  1.0000
  H   H16       1.0  0.38140  0.80200  0.53480  1.0000
  C   C17       1.0  0.32800  0.88620  0.99430  1.0000
  C   C18       1.0  0.67200  0.38620  0.50570  1.0000
  C   C19       1.0  0.67200  0.11380  0.00570  1.0000
  C   C20       1.0  0.32800  0.61380  0.49430  1.0000
  H   H17       1.0  0.38290  0.85100  0.00100  1.0000
  H   H18       1.0  0.61710  0.35100  0.49900  1.0000
  H   H19       1.0  0.61710  0.14900  0.99900  1.0000
  H   H20       1.0  0.38290  0.64900  0.50100  1.0000
  C   C21       1.0  0.25010  0.83530  0.00620  1.0000
  C   C22       1.0  0.74990  0.33530  0.49380  1.0000
  C   C23       1.0  0.74990  0.16470  0.99380  1.0000
  C   C24       1.0  0.25010  0.66470  0.50620  1.0000
  C   C25       1.0  0.32490  0.98890  0.97240  1.0000
  C   C26       1.0  0.67510  0.48890  0.52760  1.0000
  C   C27       1.0  0.67510  0.01110  0.02760  1.0000
  C   C28       1.0  0.32490  0.51110  0.47240  1.0000
  H   H21       1.0  0.37870  0.02280  0.96390  1.0000
  H   H22       1.0  0.62130  0.52280  0.53610  1.0000
  H   H23       1.0  0.62130  0.97720  0.03610  1.0000
  H   H24       1.0  0.37870  0.47720  0.46390  1.0000
  C   C29       1.0  0.24740  0.72170  0.02220  1.0000
  C   C30       1.0  0.75260  0.22170  0.47780  1.0000
  C   C31       1.0  0.75260  0.27830  0.97780  1.0000
  C   C32       1.0  0.24740  0.77830  0.52220  1.0000
  C   C33       1.0  0.17260  0.89390  0.00100  1.0000
  C   C34       1.0  0.82740  0.39390  0.49900  1.0000
  C   C35       1.0  0.82740  0.10610  0.99900  1.0000
  C   C36       1.0  0.17260  0.60610  0.50100  1.0000
  H   H25       1.0  0.11840  0.86350  0.01310  1.0000
  H   H26       1.0  0.88160  0.36350  0.48690  1.0000
  H   H27       1.0  0.88160  0.13650  0.98690  1.0000
  H   H28       1.0  0.11840  0.63650  0.51310  1.0000
  C   C37       1.0  0.17460  0.99640  0.97800  1.0000
  C   C38       1.0  0.82540  0.49640  0.52200  1.0000
  C   C39       1.0  0.82540  0.00360  0.02200  1.0000
  C   C40       1.0  0.17460  0.50360  0.47800  1.0000
  H   H29       1.0  0.12110  0.03460  0.97300  1.0000
  H   H30       1.0  0.87890  0.53460  0.52700  1.0000
  H   H31       1.0  0.87890  0.96540  0.02700  1.0000
  H   H32       1.0  0.12110  0.46540  0.47300  1.0000
