data_image0
_chemical_formula_structural       Cd8O64C32H8C8H8C8H8C8H8C32H8C8H8C8H8C8H8C48H8C8H8C8H8C8H8C40H8C8H8C8H8C8H8C8
_chemical_formula_sum              "Cd8 O64 C256 H128"
_cell_length_a       18.56
_cell_length_b       20.499
_cell_length_c       20.761
_cell_angle_alpha    90
_cell_angle_beta     90
_cell_angle_gamma    90

_space_group_name_H-M_alt    "P 1"
_space_group_IT_number       1

loop_
  _space_group_symop_operation_xyz
  'x, y, z'

loop_
  _atom_site_type_symbol
  _atom_site_label
  _atom_site_symmetry_multiplicity
  _atom_site_fract_x
  _atom_site_fract_y
  _atom_site_fract_z
  _atom_site_occupancy
  Cd  Cd1       1.0  0.61952  0.02989  0.75006  1.0000
  Cd  Cd2       1.0  0.88048  0.97012  0.25006  1.0000
  Cd  Cd3       1.0  0.11952  0.47012  0.24994  1.0000
  Cd  Cd4       1.0  0.38048  0.52989  0.74994  1.0000
  Cd  Cd5       1.0  0.38048  0.97012  0.24994  1.0000
  Cd  Cd6       1.0  0.11952  0.02989  0.74994  1.0000
  Cd  Cd7       1.0  0.88048  0.52989  0.75006  1.0000
  Cd  Cd8       1.0  0.61952  0.47012  0.25006  1.0000
  O   O1        1.0  0.72243  0.09773  0.75424  1.0000
  O   O2        1.0  0.77757  0.90227  0.25424  1.0000
  O   O3        1.0  0.22243  0.40227  0.24576  1.0000
  O   O4        1.0  0.27757  0.59773  0.74576  1.0000
  O   O5        1.0  0.27757  0.90227  0.24576  1.0000
  O   O6        1.0  0.22243  0.09773  0.74576  1.0000
  O   O7        1.0  0.77757  0.59773  0.75424  1.0000
  O   O8        1.0  0.72243  0.40227  0.25424  1.0000
  O   O9        1.0  0.61723  0.14710  0.74819  1.0000
  O   O10       1.0  0.88277  0.85290  0.24819  1.0000
  O   O11       1.0  0.11723  0.35290  0.25181  1.0000
  O   O12       1.0  0.38277  0.64710  0.75181  1.0000
  O   O13       1.0  0.38277  0.85290  0.25181  1.0000
  O   O14       1.0  0.11723  0.14710  0.75181  1.0000
  O   O15       1.0  0.88277  0.64710  0.74819  1.0000
  O   O16       1.0  0.61723  0.35290  0.24819  1.0000
  O   O17       1.0  0.89760  0.40035  0.73740  1.0000
  O   O18       1.0  0.60240  0.59965  0.23740  1.0000
  O   O19       1.0  0.39760  0.09965  0.26260  1.0000
  O   O20       1.0  0.10240  0.90035  0.76260  1.0000
  O   O21       1.0  0.10240  0.59965  0.26260  1.0000
  O   O22       1.0  0.39760  0.40035  0.76260  1.0000
  O   O23       1.0  0.60240  0.90035  0.73740  1.0000
  O   O24       1.0  0.89760  0.09965  0.23740  1.0000
  O   O25       1.0  0.79620  0.44921  0.76030  1.0000
  O   O26       1.0  0.70380  0.55079  0.26030  1.0000
  O   O27       1.0  0.29620  0.05079  0.23970  1.0000
  O   O28       1.0  0.20380  0.94921  0.73970  1.0000
  O   O29       1.0  0.20380  0.55079  0.23970  1.0000
  O   O30       1.0  0.29620  0.44921  0.73970  1.0000
  O   O31       1.0  0.70380  0.94921  0.76030  1.0000
  O   O32       1.0  0.79620  0.05079  0.26030  1.0000
  O   O33       1.0  0.62390  0.03090  0.86632  1.0000
  O   O34       1.0  0.87610  0.96910  0.36632  1.0000
  O   O35       1.0  0.12390  0.46910  0.13368  1.0000
  O   O36       1.0  0.37610  0.53090  0.63368  1.0000
  O   O37       1.0  0.37610  0.96910  0.13368  1.0000
  O   O38       1.0  0.12390  0.03090  0.63368  1.0000
  O   O39       1.0  0.87610  0.53090  0.86632  1.0000
  O   O40       1.0  0.62390  0.46910  0.36632  1.0000
  O   O41       1.0  0.52070  0.00860  0.82206  1.0000
  O   O42       1.0  0.97930  0.99140  0.32206  1.0000
  O   O43       1.0  0.02070  0.49140  0.17794  1.0000
  O   O44       1.0  0.47930  0.50860  0.67794  1.0000
  O   O45       1.0  0.47930  0.99140  0.17794  1.0000
  O   O46       1.0  0.02070  0.00860  0.67794  1.0000
  O   O47       1.0  0.97930  0.50860  0.82206  1.0000
  O   O48       1.0  0.52070  0.49140  0.32206  1.0000
  O   O49       1.0  0.53356  0.02455  0.67139  1.0000
  O   O50       1.0  0.96644  0.97545  0.17139  1.0000
  O   O51       1.0  0.03356  0.47545  0.32861  1.0000
  O   O52       1.0  0.46644  0.52455  0.82861  1.0000
  O   O53       1.0  0.46644  0.97545  0.32861  1.0000
  O   O54       1.0  0.03356  0.02455  0.82861  1.0000
  O   O55       1.0  0.96644  0.52455  0.67139  1.0000
  O   O56       1.0  0.53356  0.47545  0.17139  1.0000
  O   O57       1.0  0.64020  0.02680  0.62649  1.0000
  O   O58       1.0  0.85980  0.97320  0.12649  1.0000
  O   O59       1.0  0.14020  0.47320  0.37351  1.0000
  O   O60       1.0  0.35980  0.52680  0.87351  1.0000
  O   O61       1.0  0.35980  0.97320  0.37351  1.0000
  O   O62       1.0  0.14020  0.02680  0.87351  1.0000
  O   O63       1.0  0.85980  0.52680  0.62649  1.0000
  O   O64       1.0  0.64020  0.47320  0.12649  1.0000
  C   C1        1.0  0.68530  0.14810  0.75180  1.0000
  C   C2        1.0  0.81470  0.85190  0.25180  1.0000
  C   C3        1.0  0.18530  0.35190  0.24820  1.0000
  C   C4        1.0  0.31470  0.64810  0.74820  1.0000
  C   C5        1.0  0.31470  0.85190  0.24820  1.0000
  C   C6        1.0  0.18530  0.14810  0.74820  1.0000
  C   C7        1.0  0.81470  0.64810  0.75180  1.0000
  C   C8        1.0  0.68530  0.35190  0.25180  1.0000
  C   C9        1.0  0.72220  0.21350  0.75090  1.0000
  C   C10       1.0  0.77780  0.78650  0.25090  1.0000
  C   C11       1.0  0.22220  0.28650  0.24910  1.0000
  C   C12       1.0  0.27780  0.71350  0.74910  1.0000
  C   C13       1.0  0.27780  0.78650  0.24910  1.0000
  C   C14       1.0  0.22220  0.21350  0.74910  1.0000
  C   C15       1.0  0.77780  0.71350  0.75090  1.0000
  C   C16       1.0  0.72220  0.28650  0.25090  1.0000
  C   C17       1.0  0.72390  0.25050  0.69400  1.0000
  C   C18       1.0  0.77610  0.74950  0.19400  1.0000
  C   C19       1.0  0.22390  0.24950  0.30600  1.0000
  C   C20       1.0  0.27610  0.75050  0.80600  1.0000
  C   C21       1.0  0.27610  0.74950  0.30600  1.0000
  C   C22       1.0  0.22390  0.25050  0.80600  1.0000
  C   C23       1.0  0.77610  0.75050  0.69400  1.0000
  C   C24       1.0  0.72390  0.24950  0.19400  1.0000
  C   C25       1.0  0.69380  0.22630  0.63490  1.0000
  C   C26       1.0  0.80620  0.77370  0.13490  1.0000
  C   C27       1.0  0.19380  0.27370  0.36510  1.0000
  C   C28       1.0  0.30620  0.72630  0.86510  1.0000
  C   C29       1.0  0.30620  0.77370  0.36510  1.0000
  C   C30       1.0  0.19380  0.22630  0.86510  1.0000
  C   C31       1.0  0.80620  0.72630  0.63490  1.0000
  C   C32       1.0  0.69380  0.27370  0.13490  1.0000
  H   H1        1.0  0.67420  0.18460  0.63330  1.0000
  H   H2        1.0  0.82580  0.81540  0.13330  1.0000
  H   H3        1.0  0.17420  0.31540  0.36670  1.0000
  H   H4        1.0  0.32580  0.68460  0.86670  1.0000
  H   H5        1.0  0.32580  0.81540  0.36670  1.0000
  H   H6        1.0  0.17420  0.18460  0.86670  1.0000
  H   H7        1.0  0.82580  0.68460  0.63330  1.0000
  H   H8        1.0  0.67420  0.31540  0.13330  1.0000
  C   C33       1.0  0.69390  0.26450  0.58120  1.0000
  C   C34       1.0  0.80610  0.73550  0.08120  1.0000
  C   C35       1.0  0.19390  0.23550  0.41880  1.0000
  C   C36       1.0  0.30610  0.76450  0.91880  1.0000
  C   C37       1.0  0.30610  0.73550  0.41880  1.0000
  C   C38       1.0  0.19390  0.26450  0.91880  1.0000
  C   C39       1.0  0.80610  0.76450  0.58120  1.0000
  C   C40       1.0  0.69390  0.23550  0.08120  1.0000
  H   H9        1.0  0.67480  0.24820  0.54300  1.0000
  H   H10       1.0  0.82520  0.75180  0.04300  1.0000
  H   H11       1.0  0.17480  0.25180  0.45700  1.0000
  H   H12       1.0  0.32520  0.74820  0.95700  1.0000
  H   H13       1.0  0.32520  0.75180  0.45700  1.0000
  H   H14       1.0  0.17480  0.24820  0.95700  1.0000
  H   H15       1.0  0.82520  0.74820  0.54300  1.0000
  H   H16       1.0  0.67480  0.25180  0.04300  1.0000
  C   C41       1.0  0.72290  0.32880  0.58260  1.0000
  C   C42       1.0  0.77710  0.67120  0.08260  1.0000
  C   C43       1.0  0.22290  0.17120  0.41740  1.0000
  C   C44       1.0  0.27710  0.82880  0.91740  1.0000
  C   C45       1.0  0.27710  0.67120  0.41740  1.0000
  C   C46       1.0  0.22290  0.32880  0.91740  1.0000
  C   C47       1.0  0.77710  0.82880  0.58260  1.0000
  C   C48       1.0  0.72290  0.17120  0.08260  1.0000
  H   H17       1.0  0.71990  0.35510  0.54630  1.0000
  H   H18       1.0  0.78010  0.64490  0.04630  1.0000
  H   H19       1.0  0.21990  0.14490  0.45370  1.0000
  H   H20       1.0  0.28010  0.85510  0.95370  1.0000
  H   H21       1.0  0.28010  0.64490  0.45370  1.0000
  H   H22       1.0  0.21990  0.35510  0.95370  1.0000
  H   H23       1.0  0.78010  0.85510  0.54630  1.0000
  H   H24       1.0  0.71990  0.14490  0.04630  1.0000
  C   C49       1.0  0.75450  0.35150  0.63670  1.0000
  C   C50       1.0  0.74550  0.64850  0.13670  1.0000
  C   C51       1.0  0.25450  0.14850  0.36330  1.0000
  C   C52       1.0  0.24550  0.85150  0.86330  1.0000
  C   C53       1.0  0.24550  0.64850  0.36330  1.0000
  C   C54       1.0  0.25450  0.35150  0.86330  1.0000
  C   C55       1.0  0.74550  0.85150  0.63670  1.0000
  C   C56       1.0  0.75450  0.14850  0.13670  1.0000
  H   H25       1.0  0.77400  0.39330  0.63680  1.0000
  H   H26       1.0  0.72600  0.60670  0.13680  1.0000
  H   H27       1.0  0.27400  0.10670  0.36320  1.0000
  H   H28       1.0  0.22600  0.89330  0.86320  1.0000
  H   H29       1.0  0.22600  0.60670  0.36320  1.0000
  H   H30       1.0  0.27400  0.39330  0.86320  1.0000
  H   H31       1.0  0.72600  0.89330  0.63680  1.0000
  H   H32       1.0  0.77400  0.10670  0.13680  1.0000
  C   C57       1.0  0.75860  0.31260  0.69380  1.0000
  C   C58       1.0  0.74140  0.68740  0.19380  1.0000
  C   C59       1.0  0.25860  0.18740  0.30620  1.0000
  C   C60       1.0  0.24140  0.81260  0.80620  1.0000
  C   C61       1.0  0.24140  0.68740  0.30620  1.0000
  C   C62       1.0  0.25860  0.31260  0.80620  1.0000
  C   C63       1.0  0.74140  0.81260  0.69380  1.0000
  C   C64       1.0  0.75860  0.18740  0.19380  1.0000
  C   C65       1.0  0.79350  0.33470  0.75000  1.0000
  C   C66       1.0  0.70650  0.66530  0.25000  1.0000
  C   C67       1.0  0.29350  0.16530  0.25000  1.0000
  C   C68       1.0  0.20650  0.83470  0.75000  1.0000
  C   C69       1.0  0.20650  0.66530  0.25000  1.0000
  C   C70       1.0  0.29350  0.33470  0.75000  1.0000
  C   C71       1.0  0.70650  0.83470  0.75000  1.0000
  C   C72       1.0  0.79350  0.16530  0.25000  1.0000
  C   C73       1.0  0.79060  0.29800  0.80710  1.0000
  C   C74       1.0  0.70940  0.70200  0.30710  1.0000
  C   C75       1.0  0.29060  0.20200  0.19290  1.0000
  C   C76       1.0  0.20940  0.79800  0.69290  1.0000
  C   C77       1.0  0.20940  0.70200  0.19290  1.0000
  C   C78       1.0  0.29060  0.29800  0.69290  1.0000
  C   C79       1.0  0.70940  0.79800  0.80710  1.0000
  C   C80       1.0  0.79060  0.20200  0.30710  1.0000
  C   C81       1.0  0.82270  0.32150  0.86570  1.0000
  C   C82       1.0  0.67730  0.67850  0.36570  1.0000
  C   C83       1.0  0.32270  0.17850  0.13430  1.0000
  C   C84       1.0  0.17730  0.82150  0.63430  1.0000
  C   C85       1.0  0.17730  0.67850  0.13430  1.0000
  C   C86       1.0  0.32270  0.32150  0.63430  1.0000
  C   C87       1.0  0.67730  0.82150  0.86570  1.0000
  C   C88       1.0  0.82270  0.17850  0.36570  1.0000
  H   H33       1.0  0.84690  0.36130  0.86590  1.0000
  H   H34       1.0  0.65310  0.63870  0.36590  1.0000
  H   H35       1.0  0.34690  0.13870  0.13410  1.0000
  H   H36       1.0  0.15310  0.86130  0.63410  1.0000
  H   H37       1.0  0.15310  0.63870  0.13410  1.0000
  H   H38       1.0  0.34690  0.36130  0.63410  1.0000
  H   H39       1.0  0.65310  0.86130  0.86590  1.0000
  H   H40       1.0  0.84690  0.13870  0.36590  1.0000
  C   C89       1.0  0.81800  0.28610  0.92050  1.0000
  C   C90       1.0  0.68200  0.71390  0.42050  1.0000
  C   C91       1.0  0.31800  0.21390  0.07950  1.0000
  C   C92       1.0  0.18200  0.78610  0.57950  1.0000
  C   C93       1.0  0.18200  0.71390  0.07950  1.0000
  C   C94       1.0  0.31800  0.28610  0.57950  1.0000
  C   C95       1.0  0.68200  0.78610  0.92050  1.0000
  C   C96       1.0  0.81800  0.21390  0.42050  1.0000
  H   H41       1.0  0.83790  0.30200  0.95850  1.0000
  H   H42       1.0  0.66210  0.69800  0.45850  1.0000
  H   H43       1.0  0.33790  0.19800  0.04150  1.0000
  H   H44       1.0  0.16210  0.80200  0.54150  1.0000
  H   H45       1.0  0.16210  0.69800  0.04150  1.0000
  H   H46       1.0  0.33790  0.30200  0.54150  1.0000
  H   H47       1.0  0.66210  0.80200  0.95850  1.0000
  H   H48       1.0  0.83790  0.19800  0.45850  1.0000
  C   C97       1.0  0.78260  0.22470  0.92020  1.0000
  C   C98       1.0  0.71740  0.77530  0.42020  1.0000
  C   C99       1.0  0.28260  0.27530  0.07980  1.0000
  C   C100      1.0  0.21740  0.72470  0.57980  1.0000
  C   C101      1.0  0.21740  0.77530  0.07980  1.0000
  C   C102      1.0  0.28260  0.22470  0.57980  1.0000
  C   C103      1.0  0.71740  0.72470  0.92020  1.0000
  C   C104      1.0  0.78260  0.27530  0.42020  1.0000
  H   H49       1.0  0.78090  0.20020  0.95780  1.0000
  H   H50       1.0  0.71910  0.79980  0.45780  1.0000
  H   H51       1.0  0.28090  0.29980  0.04220  1.0000
  H   H52       1.0  0.21910  0.70020  0.54220  1.0000
  H   H53       1.0  0.21910  0.79980  0.04220  1.0000
  H   H54       1.0  0.28090  0.20020  0.54220  1.0000
  H   H55       1.0  0.71910  0.70020  0.95780  1.0000
  H   H56       1.0  0.78090  0.29980  0.45780  1.0000
  C   C105      1.0  0.75160  0.20120  0.86650  1.0000
  C   C106      1.0  0.74840  0.79880  0.36650  1.0000
  C   C107      1.0  0.25160  0.29880  0.13350  1.0000
  C   C108      1.0  0.24840  0.70120  0.63350  1.0000
  C   C109      1.0  0.24840  0.79880  0.13350  1.0000
  C   C110      1.0  0.25160  0.20120  0.63350  1.0000
  C   C111      1.0  0.74840  0.70120  0.86650  1.0000
  C   C112      1.0  0.75160  0.29880  0.36650  1.0000
  H   H57       1.0  0.72800  0.16110  0.86780  1.0000
  H   H58       1.0  0.77200  0.83890  0.36780  1.0000
  H   H59       1.0  0.22800  0.33890  0.13220  1.0000
  H   H60       1.0  0.27200  0.66110  0.63220  1.0000
  H   H61       1.0  0.27200  0.83890  0.13220  1.0000
  H   H62       1.0  0.22800  0.16110  0.63220  1.0000
  H   H63       1.0  0.77200  0.66110  0.86780  1.0000
  H   H64       1.0  0.72800  0.33890  0.36780  1.0000
  C   C113      1.0  0.75420  0.23660  0.80810  1.0000
  C   C114      1.0  0.74580  0.76340  0.30810  1.0000
  C   C115      1.0  0.25420  0.26340  0.19190  1.0000
  C   C116      1.0  0.24580  0.73660  0.69190  1.0000
  C   C117      1.0  0.24580  0.76340  0.19190  1.0000
  C   C118      1.0  0.25420  0.23660  0.69190  1.0000
  C   C119      1.0  0.74580  0.73660  0.80810  1.0000
  C   C120      1.0  0.75420  0.26340  0.30810  1.0000
  C   C121      1.0  0.83260  0.39930  0.74890  1.0000
  C   C122      1.0  0.66740  0.60070  0.24890  1.0000
  C   C123      1.0  0.33260  0.10070  0.25110  1.0000
  C   C124      1.0  0.16740  0.89930  0.75110  1.0000
  C   C125      1.0  0.16740  0.60070  0.25110  1.0000
  C   C126      1.0  0.33260  0.39930  0.75110  1.0000
  C   C127      1.0  0.66740  0.89930  0.74890  1.0000
  C   C128      1.0  0.83260  0.10070  0.24890  1.0000
  C   C129      1.0  0.55880  0.01680  0.87010  1.0000
  C   C130      1.0  0.94120  0.98320  0.37010  1.0000
  C   C131      1.0  0.05880  0.48320  0.12990  1.0000
  C   C132      1.0  0.44120  0.51680  0.62990  1.0000
  C   C133      1.0  0.44120  0.98320  0.12990  1.0000
  C   C134      1.0  0.05880  0.01680  0.62990  1.0000
  C   C135      1.0  0.94120  0.51680  0.87010  1.0000
  C   C136      1.0  0.55880  0.48320  0.37010  1.0000
  C   C137      1.0  0.52660  0.00800  0.93690  1.0000
  C   C138      1.0  0.97340  0.99200  0.43690  1.0000
  C   C139      1.0  0.02660  0.49200  0.06310  1.0000
  C   C140      1.0  0.47340  0.50800  0.56310  1.0000
  C   C141      1.0  0.47340  0.99200  0.06310  1.0000
  C   C142      1.0  0.02660  0.00800  0.56310  1.0000
  C   C143      1.0  0.97340  0.50800  0.93690  1.0000
  C   C144      1.0  0.52660  0.49200  0.43690  1.0000
  C   C145      1.0  0.50110  0.94660  0.95620  1.0000
  C   C146      1.0  0.99890  0.05340  0.45620  1.0000
  C   C147      1.0  0.00110  0.55340  0.04380  1.0000
  C   C148      1.0  0.49890  0.44660  0.54380  1.0000
  C   C149      1.0  0.49890  0.05340  0.04380  1.0000
  C   C150      1.0  0.00110  0.94660  0.54380  1.0000
  C   C151      1.0  0.99890  0.44660  0.95620  1.0000
  C   C152      1.0  0.50110  0.55340  0.45620  1.0000
  C   C153      1.0  0.50110  0.89120  0.91460  1.0000
  C   C154      1.0  0.99890  0.10880  0.41460  1.0000
  C   C155      1.0  0.00110  0.60880  0.08540  1.0000
  C   C156      1.0  0.49890  0.39120  0.58540  1.0000
  C   C157      1.0  0.49890  0.10880  0.08540  1.0000
  C   C158      1.0  0.00110  0.89120  0.58540  1.0000
  C   C159      1.0  0.99890  0.39120  0.91460  1.0000
  C   C160      1.0  0.50110  0.60880  0.41460  1.0000
  H   H65       1.0  0.51790  0.89590  0.87270  1.0000
  H   H66       1.0  0.98210  0.10410  0.37270  1.0000
  H   H67       1.0  0.01790  0.60410  0.12730  1.0000
  H   H68       1.0  0.48210  0.39590  0.62730  1.0000
  H   H69       1.0  0.48210  0.10410  0.12730  1.0000
  H   H70       1.0  0.01790  0.89590  0.62730  1.0000
  H   H71       1.0  0.98210  0.39590  0.87270  1.0000
  H   H72       1.0  0.51790  0.60410  0.37270  1.0000
  C   C161      1.0  0.47760  0.83240  0.93390  1.0000
  C   C162      1.0  0.02240  0.16760  0.43390  1.0000
  C   C163      1.0  0.97760  0.66760  0.06610  1.0000
  C   C164      1.0  0.52240  0.33240  0.56610  1.0000
  C   C165      1.0  0.52240  0.16760  0.06610  1.0000
  C   C166      1.0  0.97760  0.83240  0.56610  1.0000
  C   C167      1.0  0.02240  0.33240  0.93390  1.0000
  C   C168      1.0  0.47760  0.66760  0.43390  1.0000
  H   H73       1.0  0.47670  0.79760  0.90520  1.0000
  H   H74       1.0  0.02330  0.20240  0.40520  1.0000
  H   H75       1.0  0.97670  0.70240  0.09480  1.0000
  H   H76       1.0  0.52330  0.29760  0.59480  1.0000
  H   H77       1.0  0.52330  0.20240  0.09480  1.0000
  H   H78       1.0  0.97670  0.79760  0.59480  1.0000
  H   H79       1.0  0.02330  0.29760  0.90520  1.0000
  H   H80       1.0  0.47670  0.70240  0.40520  1.0000
  C   C169      1.0  0.45420  0.82360  0.99840  1.0000
  C   C170      1.0  0.04580  0.17640  0.49840  1.0000
  C   C171      1.0  0.95420  0.67640  0.00160  1.0000
  C   C172      1.0  0.54580  0.32360  0.50160  1.0000
  C   C173      1.0  0.54580  0.17640  0.00160  1.0000
  C   C174      1.0  0.95420  0.82360  0.50160  1.0000
  C   C175      1.0  0.04580  0.32360  0.99840  1.0000
  C   C176      1.0  0.45420  0.67640  0.49840  1.0000
  H   H81       1.0  0.44000  0.78240  0.01220  1.0000
  H   H82       1.0  0.06000  0.21760  0.51220  1.0000
  H   H83       1.0  0.94000  0.71760  0.98780  1.0000
  H   H84       1.0  0.56000  0.28240  0.48780  1.0000
  H   H85       1.0  0.56000  0.21760  0.98780  1.0000
  H   H86       1.0  0.94000  0.78240  0.48780  1.0000
  H   H87       1.0  0.06000  0.28240  0.01220  1.0000
  H   H88       1.0  0.44000  0.71760  0.51220  1.0000
  C   C177      1.0  0.45210  0.87460  0.04050  1.0000
  C   C178      1.0  0.04790  0.12540  0.54050  1.0000
  C   C179      1.0  0.95210  0.62540  0.95950  1.0000
  C   C180      1.0  0.54790  0.37460  0.45950  1.0000
  C   C181      1.0  0.54790  0.12540  0.95950  1.0000
  C   C182      1.0  0.95210  0.87460  0.45950  1.0000
  C   C183      1.0  0.04790  0.37460  0.04050  1.0000
  C   C184      1.0  0.45210  0.62540  0.54050  1.0000
  H   H89       1.0  0.43590  0.86800  0.08240  1.0000
  H   H90       1.0  0.06410  0.13200  0.58240  1.0000
  H   H91       1.0  0.93590  0.63200  0.91760  1.0000
  H   H92       1.0  0.56410  0.36800  0.41760  1.0000
  H   H93       1.0  0.56410  0.13200  0.91760  1.0000
  H   H94       1.0  0.93590  0.86800  0.41760  1.0000
  H   H95       1.0  0.06410  0.36800  0.08240  1.0000
  H   H96       1.0  0.43590  0.63200  0.58240  1.0000
  C   C185      1.0  0.52540  0.06210  0.97910  1.0000
  C   C186      1.0  0.97460  0.93790  0.47910  1.0000
  C   C187      1.0  0.02540  0.43790  0.02090  1.0000
  C   C188      1.0  0.47460  0.56210  0.52090  1.0000
  C   C189      1.0  0.47460  0.93790  0.02090  1.0000
  C   C190      1.0  0.02540  0.06210  0.52090  1.0000
  C   C191      1.0  0.97460  0.56210  0.97910  1.0000
  C   C192      1.0  0.52540  0.43790  0.47910  1.0000
  C   C193      1.0  0.57390  0.02200  0.62320  1.0000
  C   C194      1.0  0.92610  0.97800  0.12320  1.0000
  C   C195      1.0  0.07390  0.47800  0.37680  1.0000
  C   C196      1.0  0.42610  0.52200  0.87680  1.0000
  C   C197      1.0  0.42610  0.97800  0.37680  1.0000
  C   C198      1.0  0.07390  0.02200  0.87680  1.0000
  C   C199      1.0  0.92610  0.52200  0.62320  1.0000
  C   C200      1.0  0.57390  0.47800  0.12320  1.0000
  C   C201      1.0  0.53680  0.01110  0.55880  1.0000
  C   C202      1.0  0.96320  0.98890  0.05880  1.0000
  C   C203      1.0  0.03680  0.48890  0.44120  1.0000
  C   C204      1.0  0.46320  0.51110  0.94120  1.0000
  C   C205      1.0  0.46320  0.98890  0.44120  1.0000
  C   C206      1.0  0.03680  0.01110  0.94120  1.0000
  C   C207      1.0  0.96320  0.51110  0.55880  1.0000
  C   C208      1.0  0.53680  0.48890  0.05880  1.0000
  C   C209      1.0  0.54090  0.94940  0.52890  1.0000
  C   C210      1.0  0.95910  0.05060  0.02890  1.0000
  C   C211      1.0  0.04090  0.55060  0.47110  1.0000
  C   C212      1.0  0.45910  0.44940  0.97110  1.0000
  C   C213      1.0  0.45910  0.05060  0.47110  1.0000
  C   C214      1.0  0.04090  0.94940  0.97110  1.0000
  C   C215      1.0  0.95910  0.44940  0.52890  1.0000
  C   C216      1.0  0.54090  0.55060  0.02890  1.0000
  C   C217      1.0  0.58010  0.89670  0.55690  1.0000
  C   C218      1.0  0.91990  0.10330  0.05690  1.0000
  C   C219      1.0  0.08010  0.60330  0.44310  1.0000
  C   C220      1.0  0.41990  0.39670  0.94310  1.0000
  C   C221      1.0  0.41990  0.10330  0.44310  1.0000
  C   C222      1.0  0.08010  0.89670  0.94310  1.0000
  C   C223      1.0  0.91990  0.39670  0.55690  1.0000
  C   C224      1.0  0.58010  0.60330  0.05690  1.0000
  H   H97       1.0  0.60410  0.90300  0.59580  1.0000
  H   H98       1.0  0.89590  0.09700  0.09580  1.0000
  H   H99       1.0  0.10410  0.59700  0.40420  1.0000
  H   H100      1.0  0.39590  0.40300  0.90420  1.0000
  H   H101      1.0  0.39590  0.09700  0.40420  1.0000
  H   H102      1.0  0.10410  0.90300  0.90420  1.0000
  H   H103      1.0  0.89590  0.40300  0.59580  1.0000
  H   H104      1.0  0.60410  0.59700  0.09580  1.0000
  C   C225      1.0  0.58280  0.83760  0.52750  1.0000
  C   C226      1.0  0.91720  0.16240  0.02750  1.0000
  C   C227      1.0  0.08280  0.66240  0.47250  1.0000
  C   C228      1.0  0.41720  0.33760  0.97250  1.0000
  C   C229      1.0  0.41720  0.16240  0.47250  1.0000
  C   C230      1.0  0.08280  0.83760  0.97250  1.0000
  C   C231      1.0  0.91720  0.33760  0.52750  1.0000
  C   C232      1.0  0.58280  0.66240  0.02750  1.0000
  H   H105      1.0  0.60800  0.80360  0.54680  1.0000
  H   H106      1.0  0.89200  0.19640  0.04680  1.0000
  H   H107      1.0  0.10800  0.69640  0.45320  1.0000
  H   H108      1.0  0.39200  0.30360  0.95320  1.0000
  H   H109      1.0  0.39200  0.19640  0.45320  1.0000
  H   H110      1.0  0.10800  0.80360  0.95320  1.0000
  H   H111      1.0  0.89200  0.30360  0.54680  1.0000
  H   H112      1.0  0.60800  0.69640  0.04680  1.0000
  C   C233      1.0  0.54760  0.82700  0.46780  1.0000
  C   C234      1.0  0.95240  0.17300  0.96780  1.0000
  C   C235      1.0  0.04760  0.67300  0.53220  1.0000
  C   C236      1.0  0.45240  0.32700  0.03220  1.0000
  C   C237      1.0  0.45240  0.17300  0.53220  1.0000
  C   C238      1.0  0.04760  0.82700  0.03220  1.0000
  C   C239      1.0  0.95240  0.32700  0.46780  1.0000
  C   C240      1.0  0.54760  0.67300  0.96780  1.0000
  H   H113      1.0  0.55140  0.78660  0.44770  1.0000
  H   H114      1.0  0.94860  0.21340  0.94770  1.0000
  H   H115      1.0  0.05140  0.71340  0.55230  1.0000
  H   H116      1.0  0.44860  0.28660  0.05230  1.0000
  H   H117      1.0  0.44860  0.21340  0.55230  1.0000
  H   H118      1.0  0.05140  0.78660  0.05230  1.0000
  H   H119      1.0  0.94860  0.28660  0.44770  1.0000
  H   H120      1.0  0.55140  0.71340  0.94770  1.0000
  C   C241      1.0  0.50870  0.87500  0.43990  1.0000
  C   C242      1.0  0.99130  0.12500  0.93990  1.0000
  C   C243      1.0  0.00870  0.62500  0.56010  1.0000
  C   C244      1.0  0.49130  0.37500  0.06010  1.0000
  C   C245      1.0  0.49130  0.12500  0.56010  1.0000
  C   C246      1.0  0.00870  0.87500  0.06010  1.0000
  C   C247      1.0  0.99130  0.37500  0.43990  1.0000
  C   C248      1.0  0.50870  0.62500  0.93990  1.0000
  H   H121      1.0  0.48480  0.86690  0.40130  1.0000
  H   H122      1.0  0.01520  0.13310  0.90130  1.0000
  H   H123      1.0  0.98480  0.63310  0.59870  1.0000
  H   H124      1.0  0.51520  0.36690  0.09870  1.0000
  H   H125      1.0  0.51520  0.13310  0.59870  1.0000
  H   H126      1.0  0.98480  0.86690  0.09870  1.0000
  H   H127      1.0  0.01520  0.36690  0.40130  1.0000
  H   H128      1.0  0.48480  0.63310  0.90130  1.0000
  C   C249      1.0  0.49650  0.06170  0.53110  1.0000
  C   C250      1.0  0.00350  0.93830  0.03110  1.0000
  C   C251      1.0  0.99650  0.43830  0.46890  1.0000
  C   C252      1.0  0.50350  0.56170  0.96890  1.0000
  C   C253      1.0  0.50350  0.93830  0.46890  1.0000
  C   C254      1.0  0.99650  0.06170  0.96890  1.0000
  C   C255      1.0  0.00350  0.56170  0.53110  1.0000
  C   C256      1.0  0.49650  0.43830  0.03110  1.0000
