data_image0
_chemical_formula_structural       Mg12C8H4C8H4C8H4C4H8C8H4C8H4C8H4C24H4C8H4C8H4C4H8C8H4C8H4C8H4C20H4C4H12C4H12O56H4O12N4
_chemical_formula_sum              "Mg12 C148 H96 O68 N4"
_cell_length_a       10.781
_cell_length_b       15.8837
_cell_length_c       25.1737
_cell_angle_alpha    90
_cell_angle_beta     90
_cell_angle_gamma    90

_space_group_name_H-M_alt    "P 1"
_space_group_IT_number       1

loop_
  _space_group_symop_operation_xyz
  'x, y, z'

loop_
  _atom_site_type_symbol
  _atom_site_label
  _atom_site_symmetry_multiplicity
  _atom_site_fract_x
  _atom_site_fract_y
  _atom_site_fract_z
  _atom_site_occupancy
  Mg  Mg1       1.0  0.29454  0.17574  0.71825  1.0000
  Mg  Mg2       1.0  0.70546  0.82426  0.21825  1.0000
  Mg  Mg3       1.0  0.79454  0.82426  0.71825  1.0000
  Mg  Mg4       1.0  0.20546  0.17574  0.21825  1.0000
  Mg  Mg5       1.0  0.43367  0.24978  0.60260  1.0000
  Mg  Mg6       1.0  0.56633  0.75022  0.10260  1.0000
  Mg  Mg7       1.0  0.93367  0.75022  0.60260  1.0000
  Mg  Mg8       1.0  0.06633  0.24978  0.10260  1.0000
  Mg  Mg9       1.0  0.07241  0.67011  0.48331  1.0000
  Mg  Mg10      1.0  0.92759  0.32989  0.98331  1.0000
  Mg  Mg11      1.0  0.57241  0.32989  0.48331  1.0000
  Mg  Mg12      1.0  0.42759  0.67011  0.98331  1.0000
  C   C1        1.0  0.32600  0.01320  0.59930  1.0000
  C   C2        1.0  0.67400  0.98680  0.09930  1.0000
  C   C3        1.0  0.82600  0.98680  0.59930  1.0000
  C   C4        1.0  0.17400  0.01320  0.09930  1.0000
  C   C5        1.0  0.24840  0.94290  0.59520  1.0000
  C   C6        1.0  0.75160  0.05710  0.09520  1.0000
  C   C7        1.0  0.74840  0.05710  0.59520  1.0000
  C   C8        1.0  0.25160  0.94290  0.09520  1.0000
  H   H1        1.0  0.18840  0.93220  0.62200  1.0000
  H   H2        1.0  0.81160  0.06780  0.12200  1.0000
  H   H3        1.0  0.68840  0.06780  0.62200  1.0000
  H   H4        1.0  0.31160  0.93220  0.12200  1.0000
  C   C9        1.0  0.25880  0.88840  0.55190  1.0000
  C   C10       1.0  0.74120  0.11160  0.05190  1.0000
  C   C11       1.0  0.75880  0.11160  0.55190  1.0000
  C   C12       1.0  0.24120  0.88840  0.05190  1.0000
  C   C13       1.0  0.34520  0.90630  0.51210  1.0000
  C   C14       1.0  0.65480  0.09370  0.01210  1.0000
  C   C15       1.0  0.84520  0.09370  0.51210  1.0000
  C   C16       1.0  0.15480  0.90630  0.01210  1.0000
  H   H5        1.0  0.35070  0.87040  0.48210  1.0000
  H   H6        1.0  0.64930  0.12960  0.98210  1.0000
  H   H7        1.0  0.85070  0.12960  0.48210  1.0000
  H   H8        1.0  0.14930  0.87040  0.98210  1.0000
  C   C17       1.0  0.42450  0.97660  0.51570  1.0000
  C   C18       1.0  0.57550  0.02340  0.01570  1.0000
  C   C19       1.0  0.92450  0.02340  0.51570  1.0000
  C   C20       1.0  0.07550  0.97660  0.01570  1.0000
  C   C21       1.0  0.41530  0.02740  0.56070  1.0000
  C   C22       1.0  0.58470  0.97260  0.06070  1.0000
  C   C23       1.0  0.91530  0.97260  0.56070  1.0000
  C   C24       1.0  0.08470  0.02740  0.06070  1.0000
  H   H9        1.0  0.47150  0.07290  0.56500  1.0000
  H   H10       1.0  0.52850  0.92710  0.06500  1.0000
  H   H11       1.0  0.97150  0.92710  0.56500  1.0000
  H   H12       1.0  0.02850  0.07290  0.06500  1.0000
  C   C25       1.0  0.50450  0.00370  0.47060  1.0000
  C   C26       1.0  0.49550  0.99630  0.97060  1.0000
  C   C27       1.0  0.00450  0.99630  0.47060  1.0000
  C   C28       1.0  0.99550  0.00370  0.97060  1.0000
  H   H13       1.0  0.55120  0.05400  0.48240  1.0000
  H   H14       1.0  0.44880  0.94600  0.98240  1.0000
  H   H15       1.0  0.05120  0.94600  0.48240  1.0000
  H   H16       1.0  0.94880  0.05400  0.98240  1.0000
  H   H17       1.0  0.44900  0.02210  0.44150  1.0000
  H   H18       1.0  0.55100  0.97790  0.94150  1.0000
  H   H19       1.0  0.94900  0.97790  0.44150  1.0000
  H   H20       1.0  0.05100  0.02210  0.94150  1.0000
  C   C29       1.0  0.59670  0.94290  0.44730  1.0000
  C   C30       1.0  0.40330  0.05710  0.94730  1.0000
  C   C31       1.0  0.09670  0.05710  0.44730  1.0000
  C   C32       1.0  0.90330  0.94290  0.94730  1.0000
  C   C33       1.0  0.60210  0.93330  0.39210  1.0000
  C   C34       1.0  0.39790  0.06670  0.89210  1.0000
  C   C35       1.0  0.10210  0.06670  0.39210  1.0000
  C   C36       1.0  0.89790  0.93330  0.89210  1.0000
  H   H21       1.0  0.54280  0.96070  0.37020  1.0000
  H   H22       1.0  0.45720  0.03930  0.87020  1.0000
  H   H23       1.0  0.04280  0.03930  0.37020  1.0000
  H   H24       1.0  0.95720  0.96070  0.87020  1.0000
  C   C37       1.0  0.69450  0.88330  0.36910  1.0000
  C   C38       1.0  0.30550  0.11670  0.86910  1.0000
  C   C39       1.0  0.19450  0.11670  0.36910  1.0000
  C   C40       1.0  0.80550  0.88330  0.86910  1.0000
  C   C41       1.0  0.77690  0.83950  0.40120  1.0000
  C   C42       1.0  0.22310  0.16050  0.90120  1.0000
  C   C43       1.0  0.27690  0.16050  0.40120  1.0000
  C   C44       1.0  0.72310  0.83950  0.90120  1.0000
  H   H25       1.0  0.83910  0.80530  0.38540  1.0000
  H   H26       1.0  0.16090  0.19470  0.88540  1.0000
  H   H27       1.0  0.33910  0.19470  0.38540  1.0000
  H   H28       1.0  0.66090  0.80530  0.88540  1.0000
  C   C45       1.0  0.76910  0.84540  0.45570  1.0000
  C   C46       1.0  0.23090  0.15460  0.95570  1.0000
  C   C47       1.0  0.26910  0.15460  0.45570  1.0000
  C   C48       1.0  0.73090  0.84540  0.95570  1.0000
  C   C49       1.0  0.67860  0.89650  0.47830  1.0000
  C   C50       1.0  0.32140  0.10350  0.97830  1.0000
  C   C51       1.0  0.17860  0.10350  0.47830  1.0000
  C   C52       1.0  0.82140  0.89650  0.97830  1.0000
  H   H29       1.0  0.67270  0.89990  0.51590  1.0000
  H   H30       1.0  0.32730  0.10010  0.01590  1.0000
  H   H31       1.0  0.17270  0.10010  0.51590  1.0000
  H   H32       1.0  0.82730  0.89990  0.01590  1.0000
  C   C53       1.0  0.31230  0.07320  0.64350  1.0000
  C   C54       1.0  0.68770  0.92680  0.14350  1.0000
  C   C55       1.0  0.81230  0.92680  0.64350  1.0000
  C   C56       1.0  0.18770  0.07320  0.14350  1.0000
  C   C57       1.0  0.17350  0.81410  0.54760  1.0000
  C   C58       1.0  0.82650  0.18590  0.04760  1.0000
  C   C59       1.0  0.67350  0.18590  0.54760  1.0000
  C   C60       1.0  0.32650  0.81410  0.04760  1.0000
  C   C61       1.0  0.70100  0.87370  0.31020  1.0000
  C   C62       1.0  0.29900  0.12630  0.81020  1.0000
  C   C63       1.0  0.20100  0.12630  0.31020  1.0000
  C   C64       1.0  0.79900  0.87370  0.81020  1.0000
  C   C65       1.0  0.85810  0.79570  0.48940  1.0000
  C   C66       1.0  0.14190  0.20430  0.98940  1.0000
  C   C67       1.0  0.35810  0.20430  0.48940  1.0000
  C   C68       1.0  0.64190  0.79570  0.98940  1.0000
  C   C69       1.0  0.04600  0.51680  0.61050  1.0000
  C   C70       1.0  0.95400  0.48320  0.11050  1.0000
  C   C71       1.0  0.54600  0.48320  0.61050  1.0000
  C   C72       1.0  0.45400  0.51680  0.11050  1.0000
  C   C73       1.0  0.12190  0.44740  0.61460  1.0000
  C   C74       1.0  0.87810  0.55260  0.11460  1.0000
  C   C75       1.0  0.62190  0.55260  0.61460  1.0000
  C   C76       1.0  0.37810  0.44740  0.11460  1.0000
  H   H33       1.0  0.18450  0.43820  0.58870  1.0000
  H   H34       1.0  0.81550  0.56180  0.08870  1.0000
  H   H35       1.0  0.68450  0.56180  0.58870  1.0000
  H   H36       1.0  0.31550  0.43820  0.08870  1.0000
  C   C77       1.0  0.10780  0.39130  0.65580  1.0000
  C   C78       1.0  0.89220  0.60870  0.15580  1.0000
  C   C79       1.0  0.60780  0.60870  0.65580  1.0000
  C   C80       1.0  0.39220  0.39130  0.15580  1.0000
  C   C81       1.0  0.02170  0.40630  0.69580  1.0000
  C   C82       1.0  0.97830  0.59370  0.19580  1.0000
  C   C83       1.0  0.52170  0.59370  0.69580  1.0000
  C   C84       1.0  0.47830  0.40630  0.19580  1.0000
  H   H37       1.0  0.01430  0.36860  0.72490  1.0000
  H   H38       1.0  0.98570  0.63140  0.22490  1.0000
  H   H39       1.0  0.51430  0.63140  0.72490  1.0000
  H   H40       1.0  0.48570  0.36860  0.22490  1.0000
  C   C85       1.0  0.94660  0.47710  0.69260  1.0000
  C   C86       1.0  0.05340  0.52290  0.19260  1.0000
  C   C87       1.0  0.44660  0.52290  0.69260  1.0000
  C   C88       1.0  0.55340  0.47710  0.19260  1.0000
  C   C89       1.0  0.95580  0.53010  0.64920  1.0000
  C   C90       1.0  0.04420  0.46990  0.14920  1.0000
  C   C91       1.0  0.45580  0.46990  0.64920  1.0000
  C   C92       1.0  0.54420  0.53010  0.14920  1.0000
  H   H41       1.0  0.90010  0.57610  0.64570  1.0000
  H   H42       1.0  0.09990  0.42390  0.14570  1.0000
  H   H43       1.0  0.40010  0.42390  0.64570  1.0000
  H   H44       1.0  0.59990  0.57610  0.14570  1.0000
  C   C93       1.0  0.86150  0.50130  0.73930  1.0000
  C   C94       1.0  0.13850  0.49870  0.23930  1.0000
  C   C95       1.0  0.36150  0.49870  0.73930  1.0000
  C   C96       1.0  0.63850  0.50130  0.23930  1.0000
  H   H45       1.0  0.80520  0.54670  0.72740  1.0000
  H   H46       1.0  0.19480  0.45330  0.22740  1.0000
  H   H47       1.0  0.30520  0.45330  0.72740  1.0000
  H   H48       1.0  0.69480  0.54670  0.22740  1.0000
  H   H49       1.0  0.91370  0.52460  0.76820  1.0000
  H   H50       1.0  0.08630  0.47540  0.26820  1.0000
  H   H51       1.0  0.41370  0.47540  0.76820  1.0000
  H   H52       1.0  0.58630  0.52460  0.26820  1.0000
  C   C97       1.0  0.78400  0.43130  0.76200  1.0000
  C   C98       1.0  0.21600  0.56870  0.26200  1.0000
  C   C99       1.0  0.28400  0.56870  0.76200  1.0000
  C   C100      1.0  0.71600  0.43130  0.26200  1.0000
  C   C101      1.0  0.79410  0.40650  0.81440  1.0000
  C   C102      1.0  0.20590  0.59350  0.31440  1.0000
  C   C103      1.0  0.29410  0.59350  0.81440  1.0000
  C   C104      1.0  0.70590  0.40650  0.31440  1.0000
  H   H53       1.0  0.85590  0.43130  0.83640  1.0000
  H   H54       1.0  0.14410  0.56870  0.33640  1.0000
  H   H55       1.0  0.35590  0.56870  0.83640  1.0000
  H   H56       1.0  0.64410  0.43130  0.33640  1.0000
  C   C105      1.0  0.71460  0.34550  0.83580  1.0000
  C   C106      1.0  0.28540  0.65450  0.33580  1.0000
  C   C107      1.0  0.21460  0.65450  0.83580  1.0000
  C   C108      1.0  0.78540  0.34550  0.33580  1.0000
  C   C109      1.0  0.62300  0.31020  0.80480  1.0000
  C   C110      1.0  0.37700  0.68980  0.30480  1.0000
  C   C111      1.0  0.12300  0.68980  0.80480  1.0000
  C   C112      1.0  0.87700  0.31020  0.30480  1.0000
  H   H57       1.0  0.56650  0.27110  0.81990  1.0000
  H   H58       1.0  0.43350  0.72890  0.31990  1.0000
  H   H59       1.0  0.06650  0.72890  0.81990  1.0000
  H   H60       1.0  0.93350  0.27110  0.31990  1.0000
  C   C113      1.0  0.61290  0.33210  0.75070  1.0000
  C   C114      1.0  0.38710  0.66790  0.25070  1.0000
  C   C115      1.0  0.11290  0.66790  0.75070  1.0000
  C   C116      1.0  0.88710  0.33210  0.25070  1.0000
  C   C117      1.0  0.69310  0.39320  0.73010  1.0000
  C   C118      1.0  0.30690  0.60680  0.23010  1.0000
  C   C119      1.0  0.19310  0.60680  0.73010  1.0000
  C   C120      1.0  0.80690  0.39320  0.23010  1.0000
  H   H61       1.0  0.68580  0.40930  0.69390  1.0000
  H   H62       1.0  0.31420  0.59070  0.19390  1.0000
  H   H63       1.0  0.18580  0.59070  0.69390  1.0000
  H   H64       1.0  0.81420  0.40930  0.19390  1.0000
  C   C121      1.0  0.05990  0.57740  0.56450  1.0000
  C   C122      1.0  0.94010  0.42260  0.06450  1.0000
  C   C123      1.0  0.55990  0.42260  0.56450  1.0000
  C   C124      1.0  0.44010  0.57740  0.06450  1.0000
  C   C125      1.0  0.19080  0.31380  0.65910  1.0000
  C   C126      1.0  0.80920  0.68620  0.15910  1.0000
  C   C127      1.0  0.69080  0.68620  0.65910  1.0000
  C   C128      1.0  0.30920  0.31380  0.15910  1.0000
  C   C129      1.0  0.73050  0.31880  0.89280  1.0000
  C   C130      1.0  0.26950  0.68120  0.39280  1.0000
  C   C131      1.0  0.23050  0.68120  0.89280  1.0000
  C   C132      1.0  0.76950  0.31880  0.39280  1.0000
  C   C133      1.0  0.51890  0.29090  0.71640  1.0000
  C   C134      1.0  0.48110  0.70910  0.21640  1.0000
  C   C135      1.0  0.01890  0.70910  0.71640  1.0000
  C   C136      1.0  0.98110  0.29090  0.21640  1.0000
  C   C137      1.0  0.82640  0.59520  0.43640  1.0000
  C   C138      1.0  0.17360  0.40480  0.93640  1.0000
  C   C139      1.0  0.32640  0.40480  0.43640  1.0000
  C   C140      1.0  0.67360  0.59520  0.93640  1.0000
  H   H65       1.0  0.76750  0.58380  0.46360  1.0000
  H   H66       1.0  0.23250  0.41620  0.96360  1.0000
  H   H67       1.0  0.26750  0.41620  0.46360  1.0000
  H   H68       1.0  0.73250  0.58380  0.96360  1.0000
  C   C141      1.0  0.87250  0.62930  0.34310  1.0000
  C   C142      1.0  0.12750  0.37070  0.84310  1.0000
  C   C143      1.0  0.37250  0.37070  0.34310  1.0000
  C   C144      1.0  0.62750  0.62930  0.84310  1.0000
  H   H69       1.0  0.95790  0.62130  0.35550  1.0000
  H   H70       1.0  0.04210  0.37870  0.85550  1.0000
  H   H71       1.0  0.45790  0.37870  0.35550  1.0000
  H   H72       1.0  0.54210  0.62130  0.85550  1.0000
  H   H73       1.0  0.85470  0.58930  0.31450  1.0000
  H   H74       1.0  0.14530  0.41070  0.81450  1.0000
  H   H75       1.0  0.35470  0.41070  0.31450  1.0000
  H   H76       1.0  0.64530  0.58930  0.81450  1.0000
  H   H77       1.0  0.86230  0.68690  0.32990  1.0000
  H   H78       1.0  0.13770  0.31310  0.82990  1.0000
  H   H79       1.0  0.36230  0.31310  0.32990  1.0000
  H   H80       1.0  0.63770  0.68690  0.82990  1.0000
  C   C145      1.0  0.65590  0.62530  0.37760  1.0000
  C   C146      1.0  0.34410  0.37470  0.87760  1.0000
  C   C147      1.0  0.15590  0.37470  0.37760  1.0000
  C   C148      1.0  0.84410  0.62530  0.87760  1.0000
  H   H81       1.0  0.60860  0.61220  0.40980  1.0000
  H   H82       1.0  0.39140  0.38780  0.90980  1.0000
  H   H83       1.0  0.10860  0.38780  0.40980  1.0000
  H   H84       1.0  0.89140  0.61220  0.90980  1.0000
  H   H85       1.0  0.63980  0.68360  0.36700  1.0000
  H   H86       1.0  0.36020  0.31640  0.86700  1.0000
  H   H87       1.0  0.13980  0.31640  0.36700  1.0000
  H   H88       1.0  0.86020  0.68360  0.86700  1.0000
  H   H89       1.0  0.63050  0.58720  0.34890  1.0000
  H   H90       1.0  0.36950  0.41280  0.84890  1.0000
  H   H91       1.0  0.13050  0.41280  0.34890  1.0000
  H   H92       1.0  0.86950  0.58720  0.84890  1.0000
  O   O1        1.0  0.37700  0.13980  0.64564  1.0000
  O   O2        1.0  0.62300  0.86020  0.14564  1.0000
  O   O3        1.0  0.87700  0.86020  0.64564  1.0000
  O   O4        1.0  0.12300  0.13980  0.14564  1.0000
  O   O5        1.0  0.23350  0.06060  0.68076  1.0000
  O   O6        1.0  0.76650  0.93940  0.18076  1.0000
  O   O7        1.0  0.73350  0.93940  0.68076  1.0000
  O   O8        1.0  0.26650  0.06060  0.18076  1.0000
  O   O9        1.0  0.08700  0.81210  0.58059  1.0000
  O   O10       1.0  0.91300  0.18790  0.08059  1.0000
  O   O11       1.0  0.58700  0.18790  0.58059  1.0000
  O   O12       1.0  0.41300  0.81210  0.08059  1.0000
  O   O13       1.0  0.19380  0.76020  0.51259  1.0000
  O   O14       1.0  0.80620  0.23980  0.01259  1.0000
  O   O15       1.0  0.69380  0.23980  0.51259  1.0000
  O   O16       1.0  0.30620  0.76020  0.01259  1.0000
  O   O17       1.0  0.61940  0.90510  0.28077  1.0000
  O   O18       1.0  0.38060  0.09490  0.78077  1.0000
  O   O19       1.0  0.11940  0.09490  0.28077  1.0000
  O   O20       1.0  0.88060  0.90510  0.78077  1.0000
  O   O21       1.0  0.78970  0.83220  0.29112  1.0000
  O   O22       1.0  0.21030  0.16780  0.79112  1.0000
  O   O23       1.0  0.28970  0.16780  0.29112  1.0000
  O   O24       1.0  0.71030  0.83220  0.79112  1.0000
  O   O25       1.0  0.95130  0.76450  0.46642  1.0000
  O   O26       1.0  0.04870  0.23550  0.96642  1.0000
  O   O27       1.0  0.45130  0.23550  0.46642  1.0000
  O   O28       1.0  0.54870  0.76450  0.96642  1.0000
  O   O29       1.0  0.83440  0.78860  0.53786  1.0000
  O   O30       1.0  0.16560  0.21140  0.03786  1.0000
  O   O31       1.0  0.33440  0.21140  0.53786  1.0000
  O   O32       1.0  0.66560  0.78860  0.03786  1.0000
  O   O33       1.0  0.99100  0.64220  0.56197  1.0000
  O   O34       1.0  0.00900  0.35780  0.06197  1.0000
  O   O35       1.0  0.49100  0.35780  0.56197  1.0000
  O   O36       1.0  0.50900  0.64220  0.06197  1.0000
  O   O37       1.0  0.13690  0.56280  0.52860  1.0000
  O   O38       1.0  0.86310  0.43720  0.02860  1.0000
  O   O39       1.0  0.63690  0.43720  0.52860  1.0000
  O   O40       1.0  0.36310  0.56280  0.02860  1.0000
  O   O41       1.0  0.27790  0.31000  0.62724  1.0000
  O   O42       1.0  0.72210  0.69000  0.12724  1.0000
  O   O43       1.0  0.77790  0.69000  0.62724  1.0000
  O   O44       1.0  0.22210  0.31000  0.12724  1.0000
  O   O45       1.0  0.16500  0.25840  0.69390  1.0000
  O   O46       1.0  0.83500  0.74160  0.19390  1.0000
  O   O47       1.0  0.66500  0.74160  0.69390  1.0000
  O   O48       1.0  0.33500  0.25840  0.19390  1.0000
  O   O49       1.0  0.82220  0.34560  0.91786  1.0000
  O   O50       1.0  0.17780  0.65440  0.41786  1.0000
  O   O51       1.0  0.32220  0.65440  0.91786  1.0000
  O   O52       1.0  0.67780  0.34560  0.41786  1.0000
  O   O53       1.0  0.64870  0.27030  0.91151  1.0000
  O   O54       1.0  0.35130  0.72970  0.41151  1.0000
  O   O55       1.0  0.14870  0.72970  0.91151  1.0000
  O   O56       1.0  0.85130  0.27030  0.41151  1.0000
  H   H93       1.0  0.66570  0.25890  0.94330  1.0000
  H   H94       1.0  0.33430  0.74110  0.44330  1.0000
  H   H95       1.0  0.16570  0.74110  0.94330  1.0000
  H   H96       1.0  0.83430  0.25890  0.44330  1.0000
  O   O57       1.0  0.42370  0.26200  0.73840  1.0000
  O   O58       1.0  0.57630  0.73800  0.23840  1.0000
  O   O59       1.0  0.92370  0.73800  0.73840  1.0000
  O   O60       1.0  0.07630  0.26200  0.23840  1.0000
  O   O61       1.0  0.53970  0.28870  0.66725  1.0000
  O   O62       1.0  0.46030  0.71130  0.16725  1.0000
  O   O63       1.0  0.03970  0.71130  0.66725  1.0000
  O   O64       1.0  0.96030  0.28870  0.16725  1.0000
  O   O65       1.0  0.93960  0.59150  0.44750  1.0000
  O   O66       1.0  0.06040  0.40850  0.94750  1.0000
  O   O67       1.0  0.43960  0.40850  0.44750  1.0000
  O   O68       1.0  0.56040  0.59150  0.94750  1.0000
  N   N1        1.0  0.78540  0.61470  0.38790  1.0000
  N   N2        1.0  0.21460  0.38530  0.88790  1.0000
  N   N3        1.0  0.28540  0.38530  0.38790  1.0000
  N   N4        1.0  0.71460  0.61470  0.88790  1.0000
