data_image0
_chemical_formula_structural       Ni12C8H4C8H4C8H4C12O24C8H4C8H4C8H4C12O24N4C4H4N4C4H4C4H4C4H12N4C4H4N4C4H4C4H4C4H12N4C4H4C4H4N4C4H4C4H12C4H12C4O8
_chemical_formula_sum              "Ni12 C128 H108 O56 N24"
_cell_length_a       10.109
_cell_length_b       15.178
_cell_length_c       29.97
_cell_angle_alpha    90
_cell_angle_beta     93.026
_cell_angle_gamma    90

_space_group_name_H-M_alt    "P 1"
_space_group_IT_number       1

loop_
  _space_group_symop_operation_xyz
  'x, y, z'

loop_
  _atom_site_type_symbol
  _atom_site_label
  _atom_site_symmetry_multiplicity
  _atom_site_fract_x
  _atom_site_fract_y
  _atom_site_fract_z
  _atom_site_occupancy
  Ni  Ni1       1.0  0.07347  0.13595  0.71940  1.0000
  Ni  Ni2       1.0  0.42653  0.63595  0.78060  1.0000
  Ni  Ni3       1.0  0.92653  0.86405  0.28060  1.0000
  Ni  Ni4       1.0  0.57347  0.36405  0.21940  1.0000
  Ni  Ni5       1.0  0.77103  0.08850  0.93314  1.0000
  Ni  Ni6       1.0  0.72897  0.58850  0.56686  1.0000
  Ni  Ni7       1.0  0.22897  0.91150  0.06686  1.0000
  Ni  Ni8       1.0  0.27103  0.41150  0.43314  1.0000
  Ni  Ni9       1.0  0.63681  0.62060  0.87348  1.0000
  Ni  Ni10      1.0  0.86319  0.12060  0.62652  1.0000
  Ni  Ni11      1.0  0.36319  0.37940  0.12652  1.0000
  Ni  Ni12      1.0  0.13681  0.87940  0.37348  1.0000
  C   C1        1.0  0.36856  0.24356  0.79109  1.0000
  C   C2        1.0  0.13144  0.74356  0.70891  1.0000
  C   C3        1.0  0.63144  0.75644  0.20891  1.0000
  C   C4        1.0  0.86856  0.25644  0.29109  1.0000
  C   C5        1.0  0.44504  0.19069  0.82072  1.0000
  C   C6        1.0  0.05496  0.69069  0.67928  1.0000
  C   C7        1.0  0.55496  0.80931  0.17928  1.0000
  C   C8        1.0  0.94504  0.30931  0.32072  1.0000
  H   H1        1.0  0.42680  0.12950  0.82270  1.0000
  H   H2        1.0  0.07320  0.62950  0.67730  1.0000
  H   H3        1.0  0.57320  0.87050  0.17730  1.0000
  H   H4        1.0  0.92680  0.37050  0.32270  1.0000
  C   C9        1.0  0.54761  0.22746  0.84729  1.0000
  C   C10       1.0  0.95239  0.72746  0.65271  1.0000
  C   C11       1.0  0.45239  0.77254  0.15271  1.0000
  C   C12       1.0  0.04761  0.27254  0.34729  1.0000
  C   C13       1.0  0.57226  0.31755  0.84476  1.0000
  C   C14       1.0  0.92774  0.81755  0.65524  1.0000
  C   C15       1.0  0.42774  0.68245  0.15524  1.0000
  C   C16       1.0  0.07226  0.18245  0.34476  1.0000
  H   H5        1.0  0.64160  0.34290  0.86310  1.0000
  H   H6        1.0  0.85840  0.84290  0.63690  1.0000
  H   H7        1.0  0.35840  0.65710  0.13690  1.0000
  H   H8        1.0  0.14160  0.15710  0.36310  1.0000
  C   C17       1.0  0.49604  0.37088  0.81553  1.0000
  C   C18       1.0  0.00396  0.87088  0.68447  1.0000
  C   C19       1.0  0.50396  0.62912  0.18447  1.0000
  C   C20       1.0  0.99604  0.12912  0.31553  1.0000
  C   C21       1.0  0.39485  0.33369  0.78869  1.0000
  C   C22       1.0  0.10515  0.83369  0.71131  1.0000
  C   C23       1.0  0.60515  0.66631  0.21131  1.0000
  C   C24       1.0  0.89485  0.16631  0.28869  1.0000
  H   H9        1.0  0.34320  0.36970  0.76860  1.0000
  H   H10       1.0  0.15680  0.86970  0.73140  1.0000
  H   H11       1.0  0.65680  0.63030  0.23140  1.0000
  H   H12       1.0  0.84320  0.13030  0.26860  1.0000
  C   C25       1.0  0.25725  0.20452  0.76291  1.0000
  C   C26       1.0  0.24275  0.70452  0.73709  1.0000
  C   C27       1.0  0.74275  0.79548  0.23709  1.0000
  C   C28       1.0  0.75725  0.29548  0.26291  1.0000
  C   C29       1.0  0.63461  0.17240  0.87865  1.0000
  C   C30       1.0  0.86539  0.67240  0.62135  1.0000
  C   C31       1.0  0.36539  0.82760  0.12135  1.0000
  C   C32       1.0  0.13461  0.32760  0.37865  1.0000
  C   C33       1.0  0.52121  0.46858  0.81467  1.0000
  C   C34       1.0  0.97879  0.96858  0.68533  1.0000
  C   C35       1.0  0.47879  0.53142  0.18533  1.0000
  C   C36       1.0  0.02121  0.03142  0.31467  1.0000
  O   O1        1.0  0.18335  0.25387  0.73777  1.0000
  O   O2        1.0  0.31665  0.75387  0.76223  1.0000
  O   O3        1.0  0.81665  0.74613  0.26223  1.0000
  O   O4        1.0  0.68335  0.24613  0.23777  1.0000
  O   O5        1.0  0.23482  0.12263  0.76464  1.0000
  O   O6        1.0  0.26518  0.62263  0.73536  1.0000
  O   O7        1.0  0.76518  0.87737  0.23536  1.0000
  O   O8        1.0  0.73482  0.37737  0.26464  1.0000
  O   O9        1.0  0.74156  0.20483  0.89476  1.0000
  O   O10       1.0  0.75844  0.70483  0.60524  1.0000
  O   O11       1.0  0.25844  0.79517  0.10524  1.0000
  O   O12       1.0  0.24156  0.29517  0.39476  1.0000
  O   O13       1.0  0.59986  0.09460  0.88870  1.0000
  O   O14       1.0  0.90014  0.59460  0.61130  1.0000
  O   O15       1.0  0.40014  0.90540  0.11130  1.0000
  O   O16       1.0  0.09986  0.40540  0.38870  1.0000
  O   O17       1.0  0.58481  0.50089  0.84802  1.0000
  O   O18       1.0  0.91519  0.00089  0.65198  1.0000
  O   O19       1.0  0.41519  0.49911  0.15198  1.0000
  O   O20       1.0  0.08481  0.99911  0.34802  1.0000
  O   O21       1.0  0.47693  0.50915  0.78037  1.0000
  O   O22       1.0  0.02307  0.00915  0.71963  1.0000
  O   O23       1.0  0.52307  0.49085  0.21963  1.0000
  O   O24       1.0  0.97693  0.99085  0.28037  1.0000
  C   C37       1.0  0.26736  0.18555  0.60275  1.0000
  C   C38       1.0  0.23264  0.68555  0.89725  1.0000
  C   C39       1.0  0.73264  0.81445  0.39725  1.0000
  C   C40       1.0  0.76736  0.31445  0.10275  1.0000
  C   C41       1.0  0.39678  0.16431  0.61651  1.0000
  C   C42       1.0  0.10322  0.66431  0.88349  1.0000
  C   C43       1.0  0.60322  0.83569  0.38349  1.0000
  C   C44       1.0  0.89678  0.33569  0.11651  1.0000
  H   H13       1.0  0.41340  0.12640  0.64140  1.0000
  H   H14       1.0  0.08660  0.62640  0.85860  1.0000
  H   H15       1.0  0.58660  0.87360  0.35860  1.0000
  H   H16       1.0  0.91340  0.37360  0.14140  1.0000
  C   C45       1.0  0.50174  0.19828  0.59397  1.0000
  C   C46       1.0  0.99826  0.69828  0.90603  1.0000
  C   C47       1.0  0.49826  0.80172  0.40603  1.0000
  C   C48       1.0  0.00174  0.30172  0.09397  1.0000
  C   C49       1.0  0.47777  0.25234  0.55659  1.0000
  C   C50       1.0  0.02223  0.75234  0.94341  1.0000
  C   C51       1.0  0.52223  0.74766  0.44341  1.0000
  C   C52       1.0  0.97777  0.24766  0.05659  1.0000
  H   H17       1.0  0.54980  0.27600  0.54140  1.0000
  H   H18       1.0  0.95020  0.77600  0.95860  1.0000
  H   H19       1.0  0.45020  0.72400  0.45860  1.0000
  H   H20       1.0  0.04980  0.22400  0.04140  1.0000
  C   C53       1.0  0.34801  0.27138  0.54178  1.0000
  C   C54       1.0  0.15199  0.77138  0.95822  1.0000
  C   C55       1.0  0.65199  0.72862  0.45822  1.0000
  C   C56       1.0  0.84801  0.22862  0.04178  1.0000
  C   C57       1.0  0.24334  0.23807  0.56494  1.0000
  C   C58       1.0  0.25666  0.73807  0.93506  1.0000
  C   C59       1.0  0.75666  0.76193  0.43506  1.0000
  C   C60       1.0  0.74334  0.26193  0.06494  1.0000
  H   H21       1.0  0.15480  0.25120  0.55490  1.0000
  H   H22       1.0  0.34520  0.75120  0.94510  1.0000
  H   H23       1.0  0.84520  0.74880  0.44510  1.0000
  H   H24       1.0  0.65480  0.24880  0.05490  1.0000
  C   C61       1.0  0.15369  0.15466  0.62850  1.0000
  C   C62       1.0  0.34631  0.65466  0.87150  1.0000
  C   C63       1.0  0.84631  0.84534  0.37150  1.0000
  C   C64       1.0  0.65369  0.34534  0.12850  1.0000
  C   C65       1.0  0.64135  0.17573  0.60970  1.0000
  C   C66       1.0  0.85865  0.67573  0.89030  1.0000
  C   C67       1.0  0.35865  0.82427  0.39030  1.0000
  C   C68       1.0  0.14135  0.32427  0.10970  1.0000
  C   C69       1.0  0.31836  0.32675  0.50100  1.0000
  C   C70       1.0  0.18164  0.82675  0.99900  1.0000
  C   C71       1.0  0.68164  0.67325  0.49900  1.0000
  C   C72       1.0  0.81836  0.17325  0.00100  1.0000
  O   O25       1.0  0.18314  0.12098  0.66642  1.0000
  O   O26       1.0  0.31686  0.62098  0.83358  1.0000
  O   O27       1.0  0.81686  0.87902  0.33358  1.0000
  O   O28       1.0  0.68314  0.37902  0.16642  1.0000
  O   O29       1.0  0.03982  0.16699  0.61094  1.0000
  O   O30       1.0  0.46018  0.66699  0.88906  1.0000
  O   O31       1.0  0.96018  0.83301  0.38906  1.0000
  O   O32       1.0  0.53982  0.33301  0.11094  1.0000
  O   O33       1.0  0.73585  0.22365  0.59907  1.0000
  O   O34       1.0  0.76415  0.72365  0.90093  1.0000
  O   O35       1.0  0.26415  0.77635  0.40093  1.0000
  O   O36       1.0  0.23585  0.27635  0.09907  1.0000
  O   O37       1.0  0.66102  0.10696  0.63344  1.0000
  O   O38       1.0  0.83898  0.60696  0.86656  1.0000
  O   O39       1.0  0.33898  0.89304  0.36656  1.0000
  O   O40       1.0  0.16102  0.39304  0.13344  1.0000
  O   O41       1.0  0.19931  0.33718  0.48717  1.0000
  O   O42       1.0  0.30069  0.83718  0.01283  1.0000
  O   O43       1.0  0.80069  0.66282  0.51283  1.0000
  O   O44       1.0  0.69931  0.16282  0.98717  1.0000
  O   O45       1.0  0.41100  0.36278  0.48161  1.0000
  O   O46       1.0  0.08900  0.86278  0.01839  1.0000
  O   O47       1.0  0.58900  0.63722  0.51839  1.0000
  O   O48       1.0  0.91100  0.13722  0.98161  1.0000
  N   N1        1.0  0.72659  0.88299  0.02169  1.0000
  N   N2        1.0  0.77341  0.38299  0.47831  1.0000
  N   N3        1.0  0.27341  0.11701  0.97831  1.0000
  N   N4        1.0  0.22659  0.61701  0.52169  1.0000
  C   C73       1.0  0.79952  0.93900  0.99923  1.0000
  C   C74       1.0  0.70048  0.43900  0.50077  1.0000
  C   C75       1.0  0.20048  0.06100  0.00077  1.0000
  C   C76       1.0  0.29952  0.56100  0.49923  1.0000
  H   H25       1.0  0.89040  0.95090  0.00640  1.0000
  H   H26       1.0  0.60960  0.45090  0.49360  1.0000
  H   H27       1.0  0.10960  0.04910  0.99360  1.0000
  H   H28       1.0  0.39040  0.54910  0.50640  1.0000
  N   N5        1.0  0.73033  0.97568  0.96599  1.0000
  N   N6        1.0  0.76967  0.47568  0.53401  1.0000
  N   N7        1.0  0.26967  0.02432  0.03401  1.0000
  N   N8        1.0  0.23033  0.52432  0.46599  1.0000
  C   C77       1.0  0.60375  0.93969  0.96760  1.0000
  C   C78       1.0  0.89625  0.43969  0.53240  1.0000
  C   C79       1.0  0.39625  0.06031  0.03240  1.0000
  C   C80       1.0  0.10375  0.56031  0.46760  1.0000
  H   H29       1.0  0.53040  0.95320  0.94760  1.0000
  H   H30       1.0  0.96960  0.45320  0.55240  1.0000
  H   H31       1.0  0.46960  0.04680  0.05240  1.0000
  H   H32       1.0  0.03040  0.54680  0.44760  1.0000
  C   C81       1.0  0.60230  0.88292  0.00186  1.0000
  C   C82       1.0  0.89770  0.38292  0.49814  1.0000
  C   C83       1.0  0.39770  0.11708  0.99814  1.0000
  C   C84       1.0  0.10230  0.61708  0.50186  1.0000
  H   H33       1.0  0.52880  0.84920  0.01060  1.0000
  H   H34       1.0  0.97120  0.34920  0.48940  1.0000
  H   H35       1.0  0.47120  0.15080  0.98940  1.0000
  H   H36       1.0  0.02880  0.65080  0.51060  1.0000
  C   C85       1.0  0.77010  0.83347  0.06152  1.0000
  C   C86       1.0  0.72990  0.33347  0.43848  1.0000
  C   C87       1.0  0.22990  0.16653  0.93848  1.0000
  C   C88       1.0  0.27010  0.66653  0.56152  1.0000
  H   H37       1.0  0.86380  0.84590  0.06900  1.0000
  H   H38       1.0  0.63620  0.34590  0.43100  1.0000
  H   H39       1.0  0.13620  0.15410  0.93100  1.0000
  H   H40       1.0  0.36380  0.65410  0.56900  1.0000
  H   H41       1.0  0.75850  0.77030  0.05580  1.0000
  H   H42       1.0  0.74150  0.27030  0.44420  1.0000
  H   H43       1.0  0.24150  0.22970  0.94420  1.0000
  H   H44       1.0  0.25850  0.72970  0.55580  1.0000
  H   H45       1.0  0.71730  0.85100  0.08650  1.0000
  H   H46       1.0  0.78270  0.35100  0.41350  1.0000
  H   H47       1.0  0.28270  0.14900  0.91350  1.0000
  H   H48       1.0  0.21730  0.64900  0.58650  1.0000
  N   N9        1.0  0.03523  0.95651  0.85370  1.0000
  N   N10       1.0  0.46477  0.45651  0.64630  1.0000
  N   N11       1.0  0.96477  0.04349  0.14630  1.0000
  N   N12       1.0  0.53523  0.54349  0.35370  1.0000
  C   C89       1.0  0.95050  0.96024  0.88670  1.0000
  C   C90       1.0  0.54950  0.46024  0.61330  1.0000
  C   C91       1.0  0.04950  0.03976  0.11330  1.0000
  C   C92       1.0  0.45050  0.53976  0.38670  1.0000
  H   H49       1.0  0.92970  0.91200  0.90530  1.0000
  H   H50       1.0  0.57030  0.41200  0.59470  1.0000
  H   H51       1.0  0.07030  0.08800  0.09470  1.0000
  H   H52       1.0  0.42970  0.58800  0.40530  1.0000
  N   N13       1.0  0.90029  0.04004  0.88973  1.0000
  N   N14       1.0  0.59971  0.54004  0.61027  1.0000
  N   N15       1.0  0.09971  0.95996  0.11027  1.0000
  N   N16       1.0  0.40029  0.45996  0.38973  1.0000
  C   C93       1.0  0.95268  0.08750  0.85639  1.0000
  C   C94       1.0  0.54732  0.58750  0.64361  1.0000
  C   C95       1.0  0.04732  0.91250  0.14361  1.0000
  C   C96       1.0  0.45268  0.41250  0.35639  1.0000
  H   H53       1.0  0.93200  0.14730  0.84970  1.0000
  H   H54       1.0  0.56800  0.64730  0.65030  1.0000
  H   H55       1.0  0.06800  0.85270  0.15030  1.0000
  H   H56       1.0  0.43200  0.35270  0.34970  1.0000
  C   C97       1.0  0.03742  0.03816  0.83441  1.0000
  C   C98       1.0  0.46258  0.53816  0.66559  1.0000
  C   C99       1.0  0.96258  0.96184  0.16559  1.0000
  C   C100      1.0  0.53742  0.46184  0.33441  1.0000
  H   H57       1.0  0.08860  0.05610  0.81030  1.0000
  H   H58       1.0  0.41140  0.55610  0.68970  1.0000
  H   H59       1.0  0.91140  0.94390  0.18970  1.0000
  H   H60       1.0  0.58860  0.44390  0.31030  1.0000
  C   C101      1.0  0.10900  0.87930  0.83957  1.0000
  C   C102      1.0  0.39100  0.37930  0.66043  1.0000
  C   C103      1.0  0.89100  0.12070  0.16043  1.0000
  C   C104      1.0  0.60900  0.62070  0.33957  1.0000
  H   H61       1.0  0.08990  0.82910  0.85880  1.0000
  H   H62       1.0  0.41010  0.32910  0.64120  1.0000
  H   H63       1.0  0.91010  0.17090  0.14120  1.0000
  H   H64       1.0  0.58990  0.67090  0.35880  1.0000
  H   H65       1.0  0.20410  0.89210  0.84200  1.0000
  H   H66       1.0  0.29590  0.39210  0.65800  1.0000
  H   H67       1.0  0.79590  0.10790  0.15800  1.0000
  H   H68       1.0  0.70410  0.60790  0.34200  1.0000
  H   H69       1.0  0.08230  0.86500  0.80850  1.0000
  H   H70       1.0  0.41770  0.36500  0.69150  1.0000
  H   H71       1.0  0.91770  0.13500  0.19150  1.0000
  H   H72       1.0  0.58230  0.63500  0.30850  1.0000
  N   N17       1.0  0.65349  0.56330  0.93639  1.0000
  N   N18       1.0  0.84651  0.06330  0.56361  1.0000
  N   N19       1.0  0.34651  0.43670  0.06361  1.0000
  N   N20       1.0  0.15349  0.93670  0.43639  1.0000
  C   C105      1.0  0.71000  0.49770  0.95606  1.0000
  C   C106      1.0  0.79000  0.99770  0.54394  1.0000
  C   C107      1.0  0.29000  0.50230  0.04394  1.0000
  C   C108      1.0  0.21000  0.00230  0.45606  1.0000
  H   H73       1.0  0.76230  0.45940  0.93920  1.0000
  H   H74       1.0  0.73770  0.95940  0.56080  1.0000
  H   H75       1.0  0.23770  0.54060  0.06080  1.0000
  H   H76       1.0  0.26230  0.04060  0.43920  1.0000
  C   C109      1.0  0.69940  0.48178  0.99666  1.0000
  C   C110      1.0  0.80060  0.98178  0.50334  1.0000
  C   C111      1.0  0.30060  0.51822  0.00334  1.0000
  C   C112      1.0  0.19940  0.01822  0.49666  1.0000
  H   H77       1.0  0.72460  0.43050  0.01320  1.0000
  H   H78       1.0  0.77540  0.93050  0.48680  1.0000
  H   H79       1.0  0.27540  0.56950  0.98680  1.0000
  H   H80       1.0  0.22460  0.06950  0.51320  1.0000
  N   N21       1.0  0.63980  0.56060  0.01169  1.0000
  N   N22       1.0  0.86020  0.06060  0.48831  1.0000
  N   N23       1.0  0.36020  0.43940  0.98831  1.0000
  N   N24       1.0  0.13980  0.93940  0.51169  1.0000
  C   C113      1.0  0.61470  0.61087  0.97534  1.0000
  C   C114      1.0  0.88530  0.11087  0.52466  1.0000
  C   C115      1.0  0.38530  0.38913  0.02466  1.0000
  C   C116      1.0  0.11470  0.88913  0.47534  1.0000
  H   H81       1.0  0.57750  0.66840  0.97530  1.0000
  H   H82       1.0  0.92250  0.16840  0.52470  1.0000
  H   H83       1.0  0.42250  0.33160  0.02470  1.0000
  H   H84       1.0  0.07750  0.83160  0.47530  1.0000
  C   C117      1.0  0.60550  0.58360  0.05822  1.0000
  C   C118      1.0  0.89450  0.08360  0.44178  1.0000
  C   C119      1.0  0.39450  0.41640  0.94178  1.0000
  C   C120      1.0  0.10550  0.91640  0.55822  1.0000
  H   H85       1.0  0.56780  0.64310  0.05850  1.0000
  H   H86       1.0  0.93220  0.14310  0.44150  1.0000
  H   H87       1.0  0.43220  0.35690  0.94150  1.0000
  H   H88       1.0  0.06780  0.85690  0.55850  1.0000
  H   H89       1.0  0.68570  0.58150  0.07810  1.0000
  H   H90       1.0  0.81430  0.08150  0.42190  1.0000
  H   H91       1.0  0.31430  0.41850  0.92190  1.0000
  H   H92       1.0  0.18570  0.91850  0.57810  1.0000
  H   H93       1.0  0.54060  0.54130  0.06850  1.0000
  H   H94       1.0  0.95940  0.04130  0.43150  1.0000
  H   H95       1.0  0.45940  0.45870  0.93150  1.0000
  H   H96       1.0  0.04060  0.95870  0.56850  1.0000
  C   C121      1.0  0.70679  0.22769  0.72645  1.0000
  C   C122      1.0  0.79321  0.72769  0.77355  1.0000
  C   C123      1.0  0.29321  0.77231  0.27355  1.0000
  C   C124      1.0  0.20679  0.27231  0.22645  1.0000
  H   H97       1.0  0.68070  0.23190  0.75740  1.0000
  H   H98       1.0  0.81930  0.73190  0.74260  1.0000
  H   H99       1.0  0.31930  0.76810  0.24260  1.0000
  H   H100      1.0  0.18070  0.26810  0.25740  1.0000
  H   H101      1.0  0.64700  0.18720  0.70980  1.0000
  H   H102      1.0  0.85300  0.68720  0.79020  1.0000
  H   H103      1.0  0.35300  0.81280  0.29020  1.0000
  H   H104      1.0  0.14700  0.31280  0.20980  1.0000
  H   H105      1.0  0.70160  0.28610  0.71250  1.0000
  H   H106      1.0  0.79840  0.78610  0.78750  1.0000
  H   H107      1.0  0.29840  0.71390  0.28750  1.0000
  H   H108      1.0  0.20160  0.21390  0.21250  1.0000
  C   C125      1.0  0.84644  0.19381  0.72585  1.0000
  C   C126      1.0  0.65356  0.69381  0.77415  1.0000
  C   C127      1.0  0.15356  0.80619  0.27415  1.0000
  C   C128      1.0  0.34644  0.30619  0.22585  1.0000
  O   O49       1.0  0.91449  0.17766  0.76073  1.0000
  O   O50       1.0  0.58551  0.67766  0.73927  1.0000
  O   O51       1.0  0.08551  0.82234  0.23927  1.0000
  O   O52       1.0  0.41449  0.32234  0.26073  1.0000
  O   O53       1.0  0.90007  0.18385  0.68815  1.0000
  O   O54       1.0  0.59993  0.68385  0.81185  1.0000
  O   O55       1.0  0.09993  0.81615  0.31185  1.0000
  O   O56       1.0  0.40007  0.31615  0.18815  1.0000
