data_image0
_chemical_formula_structural       C18H6C12H12C24Co6K4N24O30H12
_chemical_formula_sum              "C54 H30 Co6 K4 N24 O30"
_cell_length_a       19.67
_cell_length_b       19.67
_cell_length_c       10.205
_cell_angle_alpha    90
_cell_angle_beta     90
_cell_angle_gamma    120

_space_group_name_H-M_alt    "P 1"
_space_group_IT_number       1

loop_
  _space_group_symop_operation_xyz
  'x, y, z'

loop_
  _atom_site_type_symbol
  _atom_site_label
  _atom_site_symmetry_multiplicity
  _atom_site_fract_x
  _atom_site_fract_y
  _atom_site_fract_z
  _atom_site_occupancy
  C   C1        1.0  0.53570  0.92210  0.63250  1.0000
  C   C2        1.0  0.07790  0.61360  0.63250  1.0000
  C   C3        1.0  0.38640  0.46430  0.63250  1.0000
  C   C4        1.0  0.46430  0.07790  0.13250  1.0000
  C   C5        1.0  0.92210  0.38640  0.13250  1.0000
  C   C6        1.0  0.61360  0.53570  0.13250  1.0000
  C   C7        1.0  0.46430  0.07790  0.36750  1.0000
  C   C8        1.0  0.92210  0.38640  0.36750  1.0000
  C   C9        1.0  0.61360  0.53570  0.36750  1.0000
  C   C10       1.0  0.53570  0.92210  0.86750  1.0000
  C   C11       1.0  0.07790  0.61360  0.86750  1.0000
  C   C12       1.0  0.38640  0.46430  0.86750  1.0000
  C   C13       1.0  0.51120  0.88100  0.75000  1.0000
  C   C14       1.0  0.11900  0.63020  0.75000  1.0000
  C   C15       1.0  0.36980  0.48880  0.75000  1.0000
  C   C16       1.0  0.48880  0.11900  0.25000  1.0000
  C   C17       1.0  0.88100  0.36980  0.25000  1.0000
  C   C18       1.0  0.63020  0.51120  0.25000  1.0000
  H   H1        1.0  0.47889  0.82671  0.75000  1.0000
  H   H2        1.0  0.17329  0.65218  0.75000  1.0000
  H   H3        1.0  0.34782  0.52111  0.75000  1.0000
  H   H4        1.0  0.52111  0.17329  0.25000  1.0000
  H   H5        1.0  0.82671  0.34782  0.25000  1.0000
  H   H6        1.0  0.65218  0.47889  0.25000  1.0000
  C   C19       1.0  0.58670  0.00670  0.64060  1.0000
  C   C20       1.0  0.99330  0.58000  0.64060  1.0000
  C   C21       1.0  0.42000  0.41330  0.64060  1.0000
  C   C22       1.0  0.41330  0.99330  0.14060  1.0000
  C   C23       1.0  0.00670  0.42000  0.14060  1.0000
  C   C24       1.0  0.58000  0.58670  0.14060  1.0000
  C   C25       1.0  0.41330  0.99330  0.35940  1.0000
  C   C26       1.0  0.00670  0.42000  0.35940  1.0000
  C   C27       1.0  0.58000  0.58670  0.35940  1.0000
  C   C28       1.0  0.58670  0.00670  0.85940  1.0000
  C   C29       1.0  0.99330  0.58000  0.85940  1.0000
  C   C30       1.0  0.42000  0.41330  0.85940  1.0000
  H   H7        1.0  0.60552  0.03441  0.56267  1.0000
  H   H8        1.0  0.96559  0.57111  0.56267  1.0000
  H   H9        1.0  0.42889  0.39448  0.56267  1.0000
  H   H10       1.0  0.39448  0.96559  0.06267  1.0000
  H   H11       1.0  0.03441  0.42889  0.06267  1.0000
  H   H12       1.0  0.57111  0.60552  0.06267  1.0000
  H   H13       1.0  0.39448  0.96559  0.43733  1.0000
  H   H14       1.0  0.03441  0.42889  0.43733  1.0000
  H   H15       1.0  0.57111  0.60552  0.43733  1.0000
  H   H16       1.0  0.60552  0.03441  0.93733  1.0000
  H   H17       1.0  0.96559  0.57111  0.93733  1.0000
  H   H18       1.0  0.42889  0.39448  0.93733  1.0000
  C   C31       1.0  0.60770  0.04620  0.75000  1.0000
  C   C32       1.0  0.95380  0.56150  0.75000  1.0000
  C   C33       1.0  0.43850  0.39230  0.75000  1.0000
  C   C34       1.0  0.39230  0.95380  0.25000  1.0000
  C   C35       1.0  0.04620  0.43850  0.25000  1.0000
  C   C36       1.0  0.56150  0.60770  0.25000  1.0000
  C   C37       1.0  0.65570  0.13280  0.75000  1.0000
  C   C38       1.0  0.86720  0.52290  0.75000  1.0000
  C   C39       1.0  0.47710  0.34430  0.75000  1.0000
  C   C40       1.0  0.34430  0.86720  0.25000  1.0000
  C   C41       1.0  0.13280  0.47710  0.25000  1.0000
  C   C42       1.0  0.52290  0.65570  0.25000  1.0000
  C   C43       1.0  0.51060  0.88100  0.49760  1.0000
  C   C44       1.0  0.11900  0.62960  0.49760  1.0000
  C   C45       1.0  0.37040  0.48940  0.49760  1.0000
  C   C46       1.0  0.48940  0.11900  0.99760  1.0000
  C   C47       1.0  0.88100  0.37040  0.99760  1.0000
  C   C48       1.0  0.62960  0.51060  0.99760  1.0000
  C   C49       1.0  0.48940  0.11900  0.50240  1.0000
  C   C50       1.0  0.88100  0.37040  0.50240  1.0000
  C   C51       1.0  0.62960  0.51060  0.50240  1.0000
  C   C52       1.0  0.51060  0.88100  0.00240  1.0000
  C   C53       1.0  0.11900  0.62960  0.00240  1.0000
  C   C54       1.0  0.37040  0.48940  0.00240  1.0000
  Co  Co1       1.0  0.49036  0.84809  0.25000  1.0000
  Co  Co2       1.0  0.15191  0.64227  0.25000  1.0000
  Co  Co3       1.0  0.35773  0.50964  0.25000  1.0000
  Co  Co4       1.0  0.50964  0.15191  0.75000  1.0000
  Co  Co5       1.0  0.84809  0.35773  0.75000  1.0000
  Co  Co6       1.0  0.64227  0.49036  0.75000  1.0000
  K   K1        1.0  0.33333  0.66667  0.51280  1.0000
  K   K2        1.0  0.66667  0.33333  0.01280  1.0000
  K   K3        1.0  0.66667  0.33333  0.48720  1.0000
  K   K4        1.0  0.33333  0.66667  0.98720  1.0000
  N   N1        1.0  0.68310  0.25160  0.75000  1.0000
  N   N2        1.0  0.74840  0.43150  0.75000  1.0000
  N   N3        1.0  0.56850  0.31690  0.75000  1.0000
  N   N4        1.0  0.31690  0.74840  0.25000  1.0000
  N   N5        1.0  0.25160  0.56850  0.25000  1.0000
  N   N6        1.0  0.43150  0.68310  0.25000  1.0000
  N   N7        1.0  0.74750  0.25280  0.75000  1.0000
  N   N8        1.0  0.74720  0.49470  0.75000  1.0000
  N   N9        1.0  0.50530  0.25250  0.75000  1.0000
  N   N10       1.0  0.25250  0.74720  0.25000  1.0000
  N   N11       1.0  0.25280  0.50530  0.25000  1.0000
  N   N12       1.0  0.49470  0.74750  0.25000  1.0000
  N   N13       1.0  0.73280  0.17750  0.75000  1.0000
  N   N14       1.0  0.82250  0.55530  0.75000  1.0000
  N   N15       1.0  0.44470  0.26720  0.75000  1.0000
  N   N16       1.0  0.26720  0.82250  0.25000  1.0000
  N   N17       1.0  0.17750  0.44470  0.25000  1.0000
  N   N18       1.0  0.55530  0.73280  0.25000  1.0000
  N   N19       1.0  0.62260  0.17700  0.75000  1.0000
  N   N20       1.0  0.82300  0.44560  0.75000  1.0000
  N   N21       1.0  0.55440  0.37740  0.75000  1.0000
  N   N22       1.0  0.37740  0.82300  0.25000  1.0000
  N   N23       1.0  0.17700  0.55440  0.25000  1.0000
  N   N24       1.0  0.44560  0.62260  0.25000  1.0000
  O   O1        1.0  0.54580  0.91820  0.39890  1.0000
  O   O2        1.0  0.08180  0.62760  0.39890  1.0000
  O   O3        1.0  0.37240  0.45420  0.39890  1.0000
  O   O4        1.0  0.45420  0.08180  0.89890  1.0000
  O   O5        1.0  0.91820  0.37240  0.89890  1.0000
  O   O6        1.0  0.62760  0.54580  0.89890  1.0000
  O   O7        1.0  0.45420  0.08180  0.60110  1.0000
  O   O8        1.0  0.91820  0.37240  0.60110  1.0000
  O   O9        1.0  0.62760  0.54580  0.60110  1.0000
  O   O10       1.0  0.54580  0.91820  0.10110  1.0000
  O   O11       1.0  0.08180  0.62760  0.10110  1.0000
  O   O12       1.0  0.37240  0.45420  0.10110  1.0000
  O   O13       1.0  0.45680  0.81040  0.50240  1.0000
  O   O14       1.0  0.18960  0.64640  0.50240  1.0000
  O   O15       1.0  0.35360  0.54320  0.50240  1.0000
  O   O16       1.0  0.54320  0.18960  0.00240  1.0000
  O   O17       1.0  0.81040  0.35360  0.00240  1.0000
  O   O18       1.0  0.64640  0.45680  0.00240  1.0000
  O   O19       1.0  0.54320  0.18960  0.49760  1.0000
  O   O20       1.0  0.81040  0.35360  0.49760  1.0000
  O   O21       1.0  0.64640  0.45680  0.49760  1.0000
  O   O22       1.0  0.45680  0.81040  0.99760  1.0000
  O   O23       1.0  0.18960  0.64640  0.99760  1.0000
  O   O24       1.0  0.35360  0.54320  0.99760  1.0000
  O   O25       1.0  0.24760  0.56500  0.75000  1.0000
  O   O26       1.0  0.43500  0.68260  0.75000  1.0000
  O   O27       1.0  0.31740  0.75240  0.75000  1.0000
  O   O28       1.0  0.75240  0.43500  0.25000  1.0000
  O   O29       1.0  0.56500  0.31740  0.25000  1.0000
  O   O30       1.0  0.68260  0.24760  0.25000  1.0000
  H   H19       1.0  0.19285  0.55123  0.75000  1.0000
  H   H20       1.0  0.44877  0.64162  0.75000  1.0000
  H   H21       1.0  0.35838  0.80715  0.75000  1.0000
  H   H22       1.0  0.80715  0.44877  0.25000  1.0000
  H   H23       1.0  0.55123  0.35838  0.25000  1.0000
  H   H24       1.0  0.64162  0.19285  0.25000  1.0000
  H   H25       1.0  0.25037  0.51710  0.75000  1.0000
  H   H26       1.0  0.48290  0.73327  0.75000  1.0000
  H   H27       1.0  0.26673  0.74963  0.75000  1.0000
  H   H28       1.0  0.74963  0.48290  0.25000  1.0000
  H   H29       1.0  0.51710  0.26673  0.25000  1.0000
  H   H30       1.0  0.73327  0.25037  0.25000  1.0000
