data_image0
_chemical_formula_structural       AlO6C6O2H2O2H2O2H2Na
_chemical_formula_sum              "Al1 O12 C6 H6 Na1"
_cell_length_a       8.9734
_cell_length_b       9.1046
_cell_length_c       8.8243
_cell_angle_alpha    54.17
_cell_angle_beta     53.813
_cell_angle_gamma    56.057

_space_group_name_H-M_alt    "P 1"
_space_group_IT_number       1

loop_
  _space_group_symop_operation_xyz
  'x, y, z'

loop_
  _atom_site_type_symbol
  _atom_site_label
  _atom_site_symmetry_multiplicity
  _atom_site_fract_x
  _atom_site_fract_y
  _atom_site_fract_z
  _atom_site_occupancy
  Al  Al1       1.0  0.00000  0.00000  0.00000  1.0000
  O   O1        1.0  0.87310  0.23620  0.03330  1.0000
  O   O2        1.0  0.12690  0.76380  0.96670  1.0000
  O   O3        1.0  0.24230  0.03660  0.86050  1.0000
  O   O4        1.0  0.75770  0.96340  0.13950  1.0000
  O   O5        1.0  0.96990  0.13620  0.74880  1.0000
  O   O6        1.0  0.03010  0.86380  0.25120  1.0000
  C   C1        1.0  0.75460  0.27590  0.18990  1.0000
  C   C2        1.0  0.24540  0.72410  0.81010  1.0000
  C   C3        1.0  0.28160  0.19330  0.74410  1.0000
  C   C4        1.0  0.71840  0.80670  0.25590  1.0000
  C   C5        1.0  0.81410  0.24140  0.71760  1.0000
  C   C6        1.0  0.18590  0.75860  0.28240  1.0000
  O   O7        1.0  0.69450  0.43520  0.19180  1.0000
  O   O8        1.0  0.30550  0.56480  0.80820  1.0000
  H   H1        1.0  0.70840  0.17760  0.31410  1.0000
  H   H2        1.0  0.29160  0.82240  0.68590  1.0000
  O   O9        1.0  0.43950  0.20860  0.66880  1.0000
  O   O10       1.0  0.56050  0.79140  0.33120  1.0000
  H   H3        1.0  0.17820  0.30750  0.71400  1.0000
  H   H4        1.0  0.82180  0.69250  0.28600  1.0000
  O   O11       1.0  0.80500  0.33870  0.54860  1.0000
  O   O12       1.0  0.19500  0.66130  0.45140  1.0000
  H   H5        1.0  0.69440  0.24620  0.83320  1.0000
  H   H6        1.0  0.30560  0.75380  0.16680  1.0000
  Na  Na1       1.0  0.50000  0.50000  0.50000  1.0000
