data_image0
_chemical_formula_structural       La4O36C16H8
_chemical_formula_sum              "La4 O36 C16 H8"
_cell_length_a       6.618
_cell_length_b       12.636
_cell_length_c       13.19
_cell_angle_alpha    90
_cell_angle_beta     93.007
_cell_angle_gamma    90

_space_group_name_H-M_alt    "P 1"
_space_group_IT_number       1

loop_
  _space_group_symop_operation_xyz
  'x, y, z'

loop_
  _atom_site_type_symbol
  _atom_site_label
  _atom_site_symmetry_multiplicity
  _atom_site_fract_x
  _atom_site_fract_y
  _atom_site_fract_z
  _atom_site_occupancy
  La  La1       1.0  0.63028  0.24966  0.51284  1.0000
  La  La2       1.0  0.63028  0.25034  0.01284  1.0000
  La  La3       1.0  0.36972  0.75034  0.48716  1.0000
  La  La4       1.0  0.36972  0.74966  0.98716  1.0000
  O   O1        1.0  0.37520  0.39460  0.55490  1.0000
  O   O2        1.0  0.37520  0.10540  0.05490  1.0000
  O   O3        1.0  0.62480  0.60540  0.44510  1.0000
  O   O4        1.0  0.62480  0.89460  0.94510  1.0000
  O   O5        1.0  0.27410  0.56150  0.52990  1.0000
  O   O6        1.0  0.27410  0.93850  0.02990  1.0000
  O   O7        1.0  0.72590  0.43850  0.47010  1.0000
  O   O8        1.0  0.72590  0.06150  0.97010  1.0000
  O   O9        1.0  0.73490  0.05690  0.53200  1.0000
  O   O10       1.0  0.73490  0.44310  0.03200  1.0000
  O   O11       1.0  0.26510  0.94310  0.46800  1.0000
  O   O12       1.0  0.26510  0.55690  0.96800  1.0000
  O   O13       1.0  0.64200  0.88740  0.53430  1.0000
  O   O14       1.0  0.64200  0.61260  0.03430  1.0000
  O   O15       1.0  0.35800  0.11260  0.46570  1.0000
  O   O16       1.0  0.35800  0.38740  0.96570  1.0000
  O   O17       1.0  0.43570  0.30260  0.34170  1.0000
  O   O18       1.0  0.43570  0.19740  0.84170  1.0000
  O   O19       1.0  0.56430  0.69740  0.65830  1.0000
  O   O20       1.0  0.56430  0.80260  0.15830  1.0000
  O   O21       1.0  0.44160  0.30630  0.17320  1.0000
  O   O22       1.0  0.44160  0.19370  0.67320  1.0000
  O   O23       1.0  0.55840  0.69370  0.82680  1.0000
  O   O24       1.0  0.55840  0.80630  0.32680  1.0000
  O   O25       1.0  0.78700  0.19770  0.35070  1.0000
  O   O26       1.0  0.78700  0.30230  0.85070  1.0000
  O   O27       1.0  0.21300  0.80230  0.64930  1.0000
  O   O28       1.0  0.21300  0.69770  0.14930  1.0000
  O   O29       1.0  0.78540  0.19790  0.18160  1.0000
  O   O30       1.0  0.78540  0.30210  0.68160  1.0000
  O   O31       1.0  0.21460  0.80210  0.81840  1.0000
  O   O32       1.0  0.21460  0.69790  0.31840  1.0000
  O   O33       1.0  0.02000  0.25080  0.52110  1.0000
  O   O34       1.0  0.02000  0.24920  0.02110  1.0000
  O   O35       1.0  0.98000  0.74920  0.47890  1.0000
  O   O36       1.0  0.98000  0.75080  0.97890  1.0000
  C   C1        1.0  0.39860  0.48700  0.52390  1.0000
  C   C2        1.0  0.39860  0.01300  0.02390  1.0000
  C   C3        1.0  0.60140  0.51300  0.47610  1.0000
  C   C4        1.0  0.60140  0.98700  0.97610  1.0000
  C   C5        1.0  0.60750  0.98410  0.51910  1.0000
  C   C6        1.0  0.60750  0.51590  0.01910  1.0000
  C   C7        1.0  0.39250  0.01590  0.48090  1.0000
  C   C8        1.0  0.39250  0.48410  0.98090  1.0000
  C   C9        1.0  0.50990  0.28250  0.25970  1.0000
  C   C10       1.0  0.50990  0.21750  0.75970  1.0000
  C   C11       1.0  0.49010  0.71750  0.74030  1.0000
  C   C12       1.0  0.49010  0.78250  0.24030  1.0000
  C   C13       1.0  0.71510  0.22040  0.26520  1.0000
  C   C14       1.0  0.71510  0.27960  0.76520  1.0000
  C   C15       1.0  0.28490  0.77960  0.73480  1.0000
  C   C16       1.0  0.28490  0.72040  0.23480  1.0000
  H   H1        1.0  0.10890  0.23060  0.46310  1.0000
  H   H2        1.0  0.10890  0.26940  0.96310  1.0000
  H   H3        1.0  0.89110  0.76940  0.53690  1.0000
  H   H4        1.0  0.89110  0.73060  0.03690  1.0000
  H   H5        1.0  0.10170  0.27150  0.58230  1.0000
  H   H6        1.0  0.10170  0.22850  0.08230  1.0000
  H   H7        1.0  0.89830  0.72850  0.41770  1.0000
  H   H8        1.0  0.89830  0.77150  0.91770  1.0000
