data_image0
_chemical_formula_structural       Co12Cl16O8N32C16H8C8H8C8H8C8H8C40H8C8H8C8H8C8H8
_chemical_formula_sum              "Co12 Cl16 O8 N32 C104 H64"
_cell_length_a       20.449
_cell_length_b       15.5529
_cell_length_c       13.6581
_cell_angle_alpha    90
_cell_angle_beta     90.197
_cell_angle_gamma    90

_space_group_name_H-M_alt    "P 1"
_space_group_IT_number       1

loop_
  _space_group_symop_operation_xyz
  'x, y, z'

loop_
  _atom_site_type_symbol
  _atom_site_label
  _atom_site_symmetry_multiplicity
  _atom_site_fract_x
  _atom_site_fract_y
  _atom_site_fract_z
  _atom_site_occupancy
  Co  Co1       1.0  0.25000  0.75000  0.00000  1.0000
  Co  Co2       1.0  0.75000  0.75000  0.50000  1.0000
  Co  Co3       1.0  0.75000  0.25000  0.00000  1.0000
  Co  Co4       1.0  0.25000  0.25000  0.50000  1.0000
  Co  Co5       1.0  0.34054  0.61637  0.86651  1.0000
  Co  Co6       1.0  0.65946  0.61637  0.63349  1.0000
  Co  Co7       1.0  0.84054  0.11637  0.86651  1.0000
  Co  Co8       1.0  0.15946  0.11637  0.63349  1.0000
  Co  Co9       1.0  0.65946  0.38363  0.13349  1.0000
  Co  Co10      1.0  0.34054  0.38363  0.36651  1.0000
  Co  Co11      1.0  0.15946  0.88363  0.13349  1.0000
  Co  Co12      1.0  0.84054  0.88363  0.36651  1.0000
  Cl  Cl1       1.0  0.37372  0.48641  0.92284  1.0000
  Cl  Cl2       1.0  0.62628  0.48641  0.57716  1.0000
  Cl  Cl3       1.0  0.87372  0.98641  0.92284  1.0000
  Cl  Cl4       1.0  0.12628  0.98641  0.57716  1.0000
  Cl  Cl5       1.0  0.62628  0.51359  0.07716  1.0000
  Cl  Cl6       1.0  0.37372  0.51359  0.42284  1.0000
  Cl  Cl7       1.0  0.12628  0.01359  0.07716  1.0000
  Cl  Cl8       1.0  0.87372  0.01359  0.42284  1.0000
  Cl  Cl9       1.0  0.39590  0.65573  0.73027  1.0000
  Cl  Cl10      1.0  0.60410  0.65573  0.76973  1.0000
  Cl  Cl11      1.0  0.89590  0.15573  0.73027  1.0000
  Cl  Cl12      1.0  0.10410  0.15573  0.76973  1.0000
  Cl  Cl13      1.0  0.60410  0.34427  0.26973  1.0000
  Cl  Cl14      1.0  0.39590  0.34427  0.23027  1.0000
  Cl  Cl15      1.0  0.10410  0.84427  0.26973  1.0000
  Cl  Cl16      1.0  0.89590  0.84427  0.23027  1.0000
  O   O1        1.0  0.34497  0.70420  0.97050  1.0000
  O   O2        1.0  0.65503  0.70420  0.52950  1.0000
  O   O3        1.0  0.84497  0.20420  0.97050  1.0000
  O   O4        1.0  0.15503  0.20420  0.52950  1.0000
  O   O5        1.0  0.65503  0.29580  0.02950  1.0000
  O   O6        1.0  0.34497  0.29580  0.47050  1.0000
  O   O7        1.0  0.15503  0.79580  0.02950  1.0000
  O   O8        1.0  0.84497  0.79580  0.47050  1.0000
  N   N1        1.0  0.29100  0.82370  0.10630  1.0000
  N   N2        1.0  0.70900  0.82370  0.39370  1.0000
  N   N3        1.0  0.79100  0.32370  0.10630  1.0000
  N   N4        1.0  0.20900  0.32370  0.39370  1.0000
  N   N5        1.0  0.70900  0.17630  0.89370  1.0000
  N   N6        1.0  0.29100  0.17630  0.60630  1.0000
  N   N7        1.0  0.20900  0.67630  0.89370  1.0000
  N   N8        1.0  0.79100  0.67630  0.60630  1.0000
  N   N9        1.0  0.25640  0.88410  0.15880  1.0000
  N   N10       1.0  0.74360  0.88410  0.34120  1.0000
  N   N11       1.0  0.75640  0.38410  0.15880  1.0000
  N   N12       1.0  0.24360  0.38410  0.34120  1.0000
  N   N13       1.0  0.74360  0.11590  0.84120  1.0000
  N   N14       1.0  0.25640  0.11590  0.65880  1.0000
  N   N15       1.0  0.24360  0.61590  0.84120  1.0000
  N   N16       1.0  0.75640  0.61590  0.65880  1.0000
  N   N17       1.0  0.36290  0.90150  0.19170  1.0000
  N   N18       1.0  0.63710  0.90150  0.30830  1.0000
  N   N19       1.0  0.86290  0.40150  0.19170  1.0000
  N   N20       1.0  0.13710  0.40150  0.30830  1.0000
  N   N21       1.0  0.63710  0.09850  0.80830  1.0000
  N   N22       1.0  0.36290  0.09850  0.69170  1.0000
  N   N23       1.0  0.13710  0.59850  0.80830  1.0000
  N   N24       1.0  0.86290  0.59850  0.69170  1.0000
  N   N25       1.0  0.26600  0.14280  0.39640  1.0000
  N   N26       1.0  0.73400  0.14280  0.10360  1.0000
  N   N27       1.0  0.76600  0.64280  0.39640  1.0000
  N   N28       1.0  0.23400  0.64280  0.10360  1.0000
  N   N29       1.0  0.73400  0.85720  0.60360  1.0000
  N   N30       1.0  0.26600  0.85720  0.89640  1.0000
  N   N31       1.0  0.23400  0.35720  0.60360  1.0000
  N   N32       1.0  0.76600  0.35720  0.89640  1.0000
  C   C1        1.0  0.40270  0.72620  0.01030  1.0000
  C   C2        1.0  0.59730  0.72620  0.48970  1.0000
  C   C3        1.0  0.90270  0.22620  0.01030  1.0000
  C   C4        1.0  0.09730  0.22620  0.48970  1.0000
  C   C5        1.0  0.59730  0.27380  0.98970  1.0000
  C   C6        1.0  0.40270  0.27380  0.51030  1.0000
  C   C7        1.0  0.09730  0.77380  0.98970  1.0000
  C   C8        1.0  0.90270  0.77380  0.51030  1.0000
  C   C9        1.0  0.46050  0.68900  0.97600  1.0000
  C   C10       1.0  0.53950  0.68900  0.52400  1.0000
  C   C11       1.0  0.96050  0.18900  0.97600  1.0000
  C   C12       1.0  0.03950  0.18900  0.52400  1.0000
  C   C13       1.0  0.53950  0.31100  0.02400  1.0000
  C   C14       1.0  0.46050  0.31100  0.47600  1.0000
  C   C15       1.0  0.03950  0.81100  0.02400  1.0000
  C   C16       1.0  0.96050  0.81100  0.47600  1.0000
  H   H1        1.0  0.45790  0.64920  0.92340  1.0000
  H   H2        1.0  0.54210  0.64920  0.57660  1.0000
  H   H3        1.0  0.95790  0.14920  0.92340  1.0000
  H   H4        1.0  0.04210  0.14920  0.57660  1.0000
  H   H5        1.0  0.54210  0.35080  0.07660  1.0000
  H   H6        1.0  0.45790  0.35080  0.42340  1.0000
  H   H7        1.0  0.04210  0.85080  0.07660  1.0000
  H   H8        1.0  0.95790  0.85080  0.42340  1.0000
  C   C17       1.0  0.52110  0.70760  0.01510  1.0000
  C   C18       1.0  0.47890  0.70760  0.48490  1.0000
  C   C19       1.0  0.02110  0.20760  0.01510  1.0000
  C   C20       1.0  0.97890  0.20760  0.48490  1.0000
  C   C21       1.0  0.47890  0.29240  0.98490  1.0000
  C   C22       1.0  0.52110  0.29240  0.51510  1.0000
  C   C23       1.0  0.97890  0.79240  0.98490  1.0000
  C   C24       1.0  0.02110  0.79240  0.51510  1.0000
  H   H9        1.0  0.55920  0.68000  0.99060  1.0000
  H   H10       1.0  0.44080  0.68000  0.50940  1.0000
  H   H11       1.0  0.05920  0.18000  0.99060  1.0000
  H   H12       1.0  0.94080  0.18000  0.50940  1.0000
  H   H13       1.0  0.44080  0.32000  0.00940  1.0000
  H   H14       1.0  0.55920  0.32000  0.49060  1.0000
  H   H15       1.0  0.94080  0.82000  0.00940  1.0000
  H   H16       1.0  0.05920  0.82000  0.49060  1.0000
  C   C25       1.0  0.52590  0.76680  0.09040  1.0000
  C   C26       1.0  0.47410  0.76680  0.40960  1.0000
  C   C27       1.0  0.02590  0.26680  0.09040  1.0000
  C   C28       1.0  0.97410  0.26680  0.40960  1.0000
  C   C29       1.0  0.47410  0.23320  0.90960  1.0000
  C   C30       1.0  0.52590  0.23320  0.59040  1.0000
  C   C31       1.0  0.97410  0.73320  0.90960  1.0000
  C   C32       1.0  0.02590  0.73320  0.59040  1.0000
  H   H17       1.0  0.56740  0.78070  0.11760  1.0000
  H   H18       1.0  0.43260  0.78070  0.38240  1.0000
  H   H19       1.0  0.06740  0.28070  0.11760  1.0000
  H   H20       1.0  0.93260  0.28070  0.38240  1.0000
  H   H21       1.0  0.43260  0.21930  0.88240  1.0000
  H   H22       1.0  0.56740  0.21930  0.61760  1.0000
  H   H23       1.0  0.93260  0.71930  0.88240  1.0000
  H   H24       1.0  0.06740  0.71930  0.61760  1.0000
  C   C33       1.0  0.47050  0.80500  0.12540  1.0000
  C   C34       1.0  0.52950  0.80500  0.37460  1.0000
  C   C35       1.0  0.97050  0.30500  0.12540  1.0000
  C   C36       1.0  0.02950  0.30500  0.37460  1.0000
  C   C37       1.0  0.52950  0.19500  0.87460  1.0000
  C   C38       1.0  0.47050  0.19500  0.62540  1.0000
  C   C39       1.0  0.02950  0.69500  0.87460  1.0000
  C   C40       1.0  0.97050  0.69500  0.62540  1.0000
  H   H25       1.0  0.47410  0.84500  0.17760  1.0000
  H   H26       1.0  0.52590  0.84500  0.32240  1.0000
  H   H27       1.0  0.97410  0.34500  0.17760  1.0000
  H   H28       1.0  0.02590  0.34500  0.32240  1.0000
  H   H29       1.0  0.52590  0.15500  0.82240  1.0000
  H   H30       1.0  0.47410  0.15500  0.67760  1.0000
  H   H31       1.0  0.02590  0.65500  0.82240  1.0000
  H   H32       1.0  0.97410  0.65500  0.67760  1.0000
  C   C41       1.0  0.40880  0.78680  0.08660  1.0000
  C   C42       1.0  0.59120  0.78680  0.41340  1.0000
  C   C43       1.0  0.90880  0.28680  0.08660  1.0000
  C   C44       1.0  0.09120  0.28680  0.41340  1.0000
  C   C45       1.0  0.59120  0.21320  0.91340  1.0000
  C   C46       1.0  0.40880  0.21320  0.58660  1.0000
  C   C47       1.0  0.09120  0.71320  0.91340  1.0000
  C   C48       1.0  0.90880  0.71320  0.58660  1.0000
  C   C49       1.0  0.35330  0.83680  0.12860  1.0000
  C   C50       1.0  0.64670  0.83680  0.37140  1.0000
  C   C51       1.0  0.85330  0.33680  0.12860  1.0000
  C   C52       1.0  0.14670  0.33680  0.37140  1.0000
  C   C53       1.0  0.64670  0.16320  0.87140  1.0000
  C   C54       1.0  0.35330  0.16320  0.62860  1.0000
  C   C55       1.0  0.14670  0.66320  0.87140  1.0000
  C   C56       1.0  0.85330  0.66320  0.62860  1.0000
  C   C57       1.0  0.30180  0.92820  0.20820  1.0000
  C   C58       1.0  0.69820  0.92820  0.29180  1.0000
  C   C59       1.0  0.80180  0.42820  0.20820  1.0000
  C   C60       1.0  0.19820  0.42820  0.29180  1.0000
  C   C61       1.0  0.69820  0.07180  0.79180  1.0000
  C   C62       1.0  0.30180  0.07180  0.70820  1.0000
  C   C63       1.0  0.19820  0.57180  0.79180  1.0000
  C   C64       1.0  0.80180  0.57180  0.70820  1.0000
  C   C65       1.0  0.28770  0.00290  0.27320  1.0000
  C   C66       1.0  0.71230  0.00290  0.22680  1.0000
  C   C67       1.0  0.78770  0.50290  0.27320  1.0000
  C   C68       1.0  0.21230  0.50290  0.22680  1.0000
  C   C69       1.0  0.71230  0.99710  0.72680  1.0000
  C   C70       1.0  0.28770  0.99710  0.77320  1.0000
  C   C71       1.0  0.21230  0.49710  0.72680  1.0000
  C   C72       1.0  0.78770  0.49710  0.77320  1.0000
  C   C73       1.0  0.22690  0.02150  0.30770  1.0000
  C   C74       1.0  0.77310  0.02150  0.19230  1.0000
  C   C75       1.0  0.72690  0.52150  0.30770  1.0000
  C   C76       1.0  0.27310  0.52150  0.19230  1.0000
  C   C77       1.0  0.77310  0.97850  0.69230  1.0000
  C   C78       1.0  0.22690  0.97850  0.80770  1.0000
  C   C79       1.0  0.27310  0.47850  0.69230  1.0000
  C   C80       1.0  0.72690  0.47850  0.80770  1.0000
  H   H33       1.0  0.19050  0.98650  0.29070  1.0000
  H   H34       1.0  0.80950  0.98650  0.20930  1.0000
  H   H35       1.0  0.69050  0.48650  0.29070  1.0000
  H   H36       1.0  0.30950  0.48650  0.20930  1.0000
  H   H37       1.0  0.80950  0.01350  0.70930  1.0000
  H   H38       1.0  0.19050  0.01350  0.79070  1.0000
  H   H39       1.0  0.30950  0.51350  0.70930  1.0000
  H   H40       1.0  0.69050  0.51350  0.79070  1.0000
  C   C81       1.0  0.21880  0.09240  0.36810  1.0000
  C   C82       1.0  0.78120  0.09240  0.13190  1.0000
  C   C83       1.0  0.71880  0.59240  0.36810  1.0000
  C   C84       1.0  0.28120  0.59240  0.13190  1.0000
  C   C85       1.0  0.78120  0.90760  0.63190  1.0000
  C   C86       1.0  0.21880  0.90760  0.86810  1.0000
  C   C87       1.0  0.28120  0.40760  0.63190  1.0000
  C   C88       1.0  0.71880  0.40760  0.86810  1.0000
  H   H41       1.0  0.17590  0.10490  0.39030  1.0000
  H   H42       1.0  0.82410  0.10490  0.10970  1.0000
  H   H43       1.0  0.67590  0.60490  0.39030  1.0000
  H   H44       1.0  0.32410  0.60490  0.10970  1.0000
  H   H45       1.0  0.82410  0.89510  0.60970  1.0000
  H   H46       1.0  0.17590  0.89510  0.89030  1.0000
  H   H47       1.0  0.32410  0.39510  0.60970  1.0000
  H   H48       1.0  0.67590  0.39510  0.89030  1.0000
  C   C89       1.0  0.32510  0.12450  0.36190  1.0000
  C   C90       1.0  0.67490  0.12450  0.13810  1.0000
  C   C91       1.0  0.82510  0.62450  0.36190  1.0000
  C   C92       1.0  0.17490  0.62450  0.13810  1.0000
  C   C93       1.0  0.67490  0.87550  0.63810  1.0000
  C   C94       1.0  0.32510  0.87550  0.86190  1.0000
  C   C95       1.0  0.17490  0.37550  0.63810  1.0000
  C   C96       1.0  0.82510  0.37550  0.86190  1.0000
  H   H49       1.0  0.36060  0.16050  0.38030  1.0000
  H   H50       1.0  0.63940  0.16050  0.11970  1.0000
  H   H51       1.0  0.86060  0.66050  0.38030  1.0000
  H   H52       1.0  0.13940  0.66050  0.11970  1.0000
  H   H53       1.0  0.63940  0.83950  0.61970  1.0000
  H   H54       1.0  0.36060  0.83950  0.88030  1.0000
  H   H55       1.0  0.13940  0.33950  0.61970  1.0000
  H   H56       1.0  0.86060  0.33950  0.88030  1.0000
  C   C97       1.0  0.33730  0.05670  0.30150  1.0000
  C   C98       1.0  0.66270  0.05670  0.19850  1.0000
  C   C99       1.0  0.83730  0.55670  0.30150  1.0000
  C   C100      1.0  0.16270  0.55670  0.19850  1.0000
  C   C101      1.0  0.66270  0.94330  0.69850  1.0000
  C   C102      1.0  0.33730  0.94330  0.80150  1.0000
  C   C103      1.0  0.16270  0.44330  0.69850  1.0000
  C   C104      1.0  0.83730  0.44330  0.80150  1.0000
  H   H57       1.0  0.38050  0.04670  0.27890  1.0000
  H   H58       1.0  0.61950  0.04670  0.22110  1.0000
  H   H59       1.0  0.88050  0.54670  0.27890  1.0000
  H   H60       1.0  0.11950  0.54670  0.22110  1.0000
  H   H61       1.0  0.61950  0.95330  0.72110  1.0000
  H   H62       1.0  0.38050  0.95330  0.77890  1.0000
  H   H63       1.0  0.11950  0.45330  0.72110  1.0000
  H   H64       1.0  0.88050  0.45330  0.77890  1.0000
