data_image0
_chemical_formula_structural       Cd12S16O24C16H8C8O8C24H8C32H8O16C8O16C8H8
_chemical_formula_sum              "Cd12 S16 O64 C96 H32"
_cell_length_a       10.6427
_cell_length_b       20.2187
_cell_length_c       18.7795
_cell_angle_alpha    90
_cell_angle_beta     93.18
_cell_angle_gamma    90

_space_group_name_H-M_alt    "P 1"
_space_group_IT_number       1

loop_
  _space_group_symop_operation_xyz
  'x, y, z'

loop_
  _atom_site_type_symbol
  _atom_site_label
  _atom_site_symmetry_multiplicity
  _atom_site_fract_x
  _atom_site_fract_y
  _atom_site_fract_z
  _atom_site_occupancy
  Cd  Cd1       1.0  0.82489  0.15409  0.99889  1.0000
  Cd  Cd2       1.0  0.17511  0.15409  0.50111  1.0000
  Cd  Cd3       1.0  0.32489  0.65409  0.99889  1.0000
  Cd  Cd4       1.0  0.67511  0.65409  0.50111  1.0000
  Cd  Cd5       1.0  0.17511  0.84591  0.00111  1.0000
  Cd  Cd6       1.0  0.82489  0.84591  0.49889  1.0000
  Cd  Cd7       1.0  0.67511  0.34591  0.00111  1.0000
  Cd  Cd8       1.0  0.32489  0.34591  0.49889  1.0000
  Cd  Cd9       1.0  1.00000  0.00000  0.00000  1.0000
  Cd  Cd10      1.0  0.00000  0.00000  0.50000  1.0000
  Cd  Cd11      1.0  0.50000  0.50000  0.00000  1.0000
  Cd  Cd12      1.0  0.50000  0.50000  0.50000  1.0000
  S   S1        1.0  0.34315  0.14144  0.01201  1.0000
  S   S2        1.0  0.65685  0.14144  0.48799  1.0000
  S   S3        1.0  0.84315  0.64144  0.01201  1.0000
  S   S4        1.0  0.15685  0.64144  0.48799  1.0000
  S   S5        1.0  0.65685  0.85856  0.98799  1.0000
  S   S6        1.0  0.34315  0.85856  0.51201  1.0000
  S   S7        1.0  0.15685  0.35856  0.98799  1.0000
  S   S8        1.0  0.84315  0.35856  0.51201  1.0000
  S   S9        1.0  0.82589  0.03393  0.25950  1.0000
  S   S10       1.0  0.17411  0.03393  0.24050  1.0000
  S   S11       1.0  0.32589  0.53393  0.25950  1.0000
  S   S12       1.0  0.67411  0.53393  0.24050  1.0000
  S   S13       1.0  0.17411  0.96607  0.74050  1.0000
  S   S14       1.0  0.82589  0.96607  0.75950  1.0000
  S   S15       1.0  0.67411  0.46607  0.74050  1.0000
  S   S16       1.0  0.32589  0.46607  0.75950  1.0000
  O   O1        1.0  0.83360  0.04924  0.05240  1.0000
  O   O2        1.0  0.16640  0.04924  0.44760  1.0000
  O   O3        1.0  0.33360  0.54924  0.05240  1.0000
  O   O4        1.0  0.66640  0.54924  0.44760  1.0000
  O   O5        1.0  0.16640  0.95076  0.94760  1.0000
  O   O6        1.0  0.83360  0.95076  0.55240  1.0000
  O   O7        1.0  0.66640  0.45076  0.94760  1.0000
  O   O8        1.0  0.33360  0.45076  0.55240  1.0000
  O   O9        1.0  0.61380  0.15220  0.98890  1.0000
  O   O10       1.0  0.38620  0.15220  0.51110  1.0000
  O   O11       1.0  0.11380  0.65220  0.98890  1.0000
  O   O12       1.0  0.88620  0.65220  0.51110  1.0000
  O   O13       1.0  0.38620  0.84780  0.01110  1.0000
  O   O14       1.0  0.61380  0.84780  0.48890  1.0000
  O   O15       1.0  0.88620  0.34780  0.01110  1.0000
  O   O16       1.0  0.11380  0.34780  0.48890  1.0000
  O   O17       1.0  0.77460  0.12040  0.13360  1.0000
  O   O18       1.0  0.22540  0.12040  0.36640  1.0000
  O   O19       1.0  0.27460  0.62040  0.13360  1.0000
  O   O20       1.0  0.72540  0.62040  0.36640  1.0000
  O   O21       1.0  0.22540  0.87960  0.86640  1.0000
  O   O22       1.0  0.77460  0.87960  0.63360  1.0000
  O   O23       1.0  0.72540  0.37960  0.86640  1.0000
  O   O24       1.0  0.27460  0.37960  0.63360  1.0000
  C   C1        1.0  0.81780  0.01120  0.17110  1.0000
  C   C2        1.0  0.18220  0.01120  0.32890  1.0000
  C   C3        1.0  0.31780  0.51120  0.17110  1.0000
  C   C4        1.0  0.68220  0.51120  0.32890  1.0000
  C   C5        1.0  0.18220  0.98880  0.82890  1.0000
  C   C6        1.0  0.81780  0.98880  0.67110  1.0000
  C   C7        1.0  0.68220  0.48880  0.82890  1.0000
  C   C8        1.0  0.31780  0.48880  0.67110  1.0000
  C   C9        1.0  0.82200  0.94400  0.16280  1.0000
  C   C10       1.0  0.17800  0.94400  0.33720  1.0000
  C   C11       1.0  0.32200  0.44400  0.16280  1.0000
  C   C12       1.0  0.67800  0.44400  0.33720  1.0000
  C   C13       1.0  0.17800  0.05600  0.83720  1.0000
  C   C14       1.0  0.82200  0.05600  0.66280  1.0000
  C   C15       1.0  0.67800  0.55600  0.83720  1.0000
  C   C16       1.0  0.32200  0.55600  0.66280  1.0000
  H   H1        1.0  0.82020  0.92230  0.11780  1.0000
  H   H2        1.0  0.17980  0.92230  0.38220  1.0000
  H   H3        1.0  0.32020  0.42230  0.11780  1.0000
  H   H4        1.0  0.67980  0.42230  0.38220  1.0000
  H   H5        1.0  0.17980  0.07770  0.88220  1.0000
  H   H6        1.0  0.82020  0.07770  0.61780  1.0000
  H   H7        1.0  0.67980  0.57770  0.88220  1.0000
  H   H8        1.0  0.32020  0.57770  0.61780  1.0000
  C   C17       1.0  0.83440  0.95290  0.28570  1.0000
  C   C18       1.0  0.16560  0.95290  0.21430  1.0000
  C   C19       1.0  0.33440  0.45290  0.28570  1.0000
  C   C20       1.0  0.66560  0.45290  0.21430  1.0000
  C   C21       1.0  0.16560  0.04710  0.71430  1.0000
  C   C22       1.0  0.83440  0.04710  0.78570  1.0000
  C   C23       1.0  0.66560  0.54710  0.71430  1.0000
  C   C24       1.0  0.33440  0.54710  0.78570  1.0000
  O   O25       1.0  0.65370  0.24260  0.05460  1.0000
  O   O26       1.0  0.34630  0.24260  0.44540  1.0000
  O   O27       1.0  0.15370  0.74260  0.05460  1.0000
  O   O28       1.0  0.84630  0.74260  0.44540  1.0000
  O   O29       1.0  0.34630  0.75740  0.94540  1.0000
  O   O30       1.0  0.65370  0.75740  0.55460  1.0000
  O   O31       1.0  0.84630  0.25740  0.94540  1.0000
  O   O32       1.0  0.15370  0.25740  0.55460  1.0000
  C   C25       1.0  0.80740  0.06440  0.11630  1.0000
  C   C26       1.0  0.19260  0.06440  0.38370  1.0000
  C   C27       1.0  0.30740  0.56440  0.11630  1.0000
  C   C28       1.0  0.69260  0.56440  0.38370  1.0000
  C   C29       1.0  0.19260  0.93560  0.88370  1.0000
  C   C30       1.0  0.80740  0.93560  0.61630  1.0000
  C   C31       1.0  0.69260  0.43560  0.88370  1.0000
  C   C32       1.0  0.30740  0.43560  0.61630  1.0000
  C   C33       1.0  0.09060  0.15280  0.03690  1.0000
  C   C34       1.0  0.90940  0.15280  0.46310  1.0000
  C   C35       1.0  0.59060  0.65280  0.03690  1.0000
  C   C36       1.0  0.40940  0.65280  0.46310  1.0000
  C   C37       1.0  0.90940  0.84720  0.96310  1.0000
  C   C38       1.0  0.09060  0.84720  0.53690  1.0000
  C   C39       1.0  0.40940  0.34720  0.96310  1.0000
  C   C40       1.0  0.59060  0.34720  0.53690  1.0000
  C   C41       1.0  0.26060  0.22970  0.09580  1.0000
  C   C42       1.0  0.73940  0.22970  0.40420  1.0000
  C   C43       1.0  0.76060  0.72970  0.09580  1.0000
  C   C44       1.0  0.23940  0.72970  0.40420  1.0000
  C   C45       1.0  0.73940  0.77030  0.90420  1.0000
  C   C46       1.0  0.26060  0.77030  0.59580  1.0000
  C   C47       1.0  0.23940  0.27030  0.90420  1.0000
  C   C48       1.0  0.76060  0.27030  0.59580  1.0000
  H   H9        1.0  0.20640  0.25490  0.12390  1.0000
  H   H10       1.0  0.79360  0.25490  0.37610  1.0000
  H   H11       1.0  0.70640  0.75490  0.12390  1.0000
  H   H12       1.0  0.29360  0.75490  0.37610  1.0000
  H   H13       1.0  0.79360  0.74510  0.87610  1.0000
  H   H14       1.0  0.20640  0.74510  0.62390  1.0000
  H   H15       1.0  0.29360  0.24510  0.87610  1.0000
  H   H16       1.0  0.70640  0.24510  0.62390  1.0000
  C   C49       1.0  0.22120  0.17700  0.05490  1.0000
  C   C50       1.0  0.77880  0.17700  0.44510  1.0000
  C   C51       1.0  0.72120  0.67700  0.05490  1.0000
  C   C52       1.0  0.27880  0.67700  0.44510  1.0000
  C   C53       1.0  0.77880  0.82300  0.94510  1.0000
  C   C54       1.0  0.22120  0.82300  0.55490  1.0000
  C   C55       1.0  0.27880  0.32300  0.94510  1.0000
  C   C56       1.0  0.72120  0.32300  0.55490  1.0000
  C   C57       1.0  0.44650  0.19950  0.04750  1.0000
  C   C58       1.0  0.55350  0.19950  0.45250  1.0000
  C   C59       1.0  0.94650  0.69950  0.04750  1.0000
  C   C60       1.0  0.05350  0.69950  0.45250  1.0000
  C   C61       1.0  0.55350  0.80050  0.95250  1.0000
  C   C62       1.0  0.44650  0.80050  0.54750  1.0000
  C   C63       1.0  0.05350  0.30050  0.95250  1.0000
  C   C64       1.0  0.94650  0.30050  0.54750  1.0000
  C   C65       1.0  0.58020  0.19840  0.02930  1.0000
  C   C66       1.0  0.41980  0.19840  0.47070  1.0000
  C   C67       1.0  0.08020  0.69840  0.02930  1.0000
  C   C68       1.0  0.91980  0.69840  0.47070  1.0000
  C   C69       1.0  0.41980  0.80160  0.97070  1.0000
  C   C70       1.0  0.58020  0.80160  0.52930  1.0000
  C   C71       1.0  0.91980  0.30160  0.97070  1.0000
  C   C72       1.0  0.08020  0.30160  0.52930  1.0000
  C   C73       1.0  0.39010  0.24290  0.09200  1.0000
  C   C74       1.0  0.60990  0.24290  0.40800  1.0000
  C   C75       1.0  0.89010  0.74290  0.09200  1.0000
  C   C76       1.0  0.10990  0.74290  0.40800  1.0000
  C   C77       1.0  0.60990  0.75710  0.90800  1.0000
  C   C78       1.0  0.39010  0.75710  0.59200  1.0000
  C   C79       1.0  0.10990  0.25710  0.90800  1.0000
  C   C80       1.0  0.89010  0.25710  0.59200  1.0000
  H   H17       1.0  0.43320  0.27760  0.11720  1.0000
  H   H18       1.0  0.56680  0.27760  0.38280  1.0000
  H   H19       1.0  0.93320  0.77760  0.11720  1.0000
  H   H20       1.0  0.06680  0.77760  0.38280  1.0000
  H   H21       1.0  0.56680  0.72240  0.88280  1.0000
  H   H22       1.0  0.43320  0.72240  0.61720  1.0000
  H   H23       1.0  0.06680  0.22240  0.88280  1.0000
  H   H24       1.0  0.93320  0.22240  0.61720  1.0000
  O   O33       1.0  0.00130  0.18360  0.06390  1.0000
  O   O34       1.0  0.99870  0.18360  0.43610  1.0000
  O   O35       1.0  0.50130  0.68360  0.06390  1.0000
  O   O36       1.0  0.49870  0.68360  0.43610  1.0000
  O   O37       1.0  0.99870  0.81640  0.93610  1.0000
  O   O38       1.0  0.00130  0.81640  0.56390  1.0000
  O   O39       1.0  0.49870  0.31640  0.93610  1.0000
  O   O40       1.0  0.50130  0.31640  0.56390  1.0000
  O   O41       1.0  0.07650  0.10620  0.99330  1.0000
  O   O42       1.0  0.92350  0.10620  0.50670  1.0000
  O   O43       1.0  0.57650  0.60620  0.99330  1.0000
  O   O44       1.0  0.42350  0.60620  0.50670  1.0000
  O   O45       1.0  0.92350  0.89380  0.00670  1.0000
  O   O46       1.0  0.07650  0.89380  0.49330  1.0000
  O   O47       1.0  0.42350  0.39380  0.00670  1.0000
  O   O48       1.0  0.57650  0.39380  0.49330  1.0000
  C   C81       1.0  0.85030  0.93910  0.36420  1.0000
  C   C82       1.0  0.14970  0.93910  0.13580  1.0000
  C   C83       1.0  0.35030  0.43910  0.36420  1.0000
  C   C84       1.0  0.64970  0.43910  0.13580  1.0000
  C   C85       1.0  0.14970  0.06090  0.63580  1.0000
  C   C86       1.0  0.85030  0.06090  0.86420  1.0000
  C   C87       1.0  0.64970  0.56090  0.63580  1.0000
  C   C88       1.0  0.35030  0.56090  0.86420  1.0000
  O   O49       1.0  0.87800  0.98870  0.40180  1.0000
  O   O50       1.0  0.12200  0.98870  0.09820  1.0000
  O   O51       1.0  0.37800  0.48870  0.40180  1.0000
  O   O52       1.0  0.62200  0.48870  0.09820  1.0000
  O   O53       1.0  0.12200  0.01130  0.59820  1.0000
  O   O54       1.0  0.87800  0.01130  0.90180  1.0000
  O   O55       1.0  0.62200  0.51130  0.59820  1.0000
  O   O56       1.0  0.37800  0.51130  0.90180  1.0000
  O   O57       1.0  0.83420  0.88080  0.38490  1.0000
  O   O58       1.0  0.16580  0.88080  0.11510  1.0000
  O   O59       1.0  0.33420  0.38080  0.38490  1.0000
  O   O60       1.0  0.66580  0.38080  0.11510  1.0000
  O   O61       1.0  0.16580  0.11920  0.61510  1.0000
  O   O62       1.0  0.83420  0.11920  0.88490  1.0000
  O   O63       1.0  0.66580  0.61920  0.61510  1.0000
  O   O64       1.0  0.33420  0.61920  0.88490  1.0000
  C   C89       1.0  0.82930  0.91090  0.22920  1.0000
  C   C90       1.0  0.17070  0.91090  0.27080  1.0000
  C   C91       1.0  0.32930  0.41090  0.22920  1.0000
  C   C92       1.0  0.67070  0.41090  0.27080  1.0000
  C   C93       1.0  0.17070  0.08910  0.77080  1.0000
  C   C94       1.0  0.82930  0.08910  0.72920  1.0000
  C   C95       1.0  0.67070  0.58910  0.77080  1.0000
  C   C96       1.0  0.32930  0.58910  0.72920  1.0000
  H   H25       1.0  0.83050  0.86410  0.23380  1.0000
  H   H26       1.0  0.16950  0.86410  0.26620  1.0000
  H   H27       1.0  0.33050  0.36410  0.23380  1.0000
  H   H28       1.0  0.66950  0.36410  0.26620  1.0000
  H   H29       1.0  0.16950  0.13590  0.76620  1.0000
  H   H30       1.0  0.83050  0.13590  0.73380  1.0000
  H   H31       1.0  0.66950  0.63590  0.76620  1.0000
  H   H32       1.0  0.33050  0.63590  0.73380  1.0000
