data_image0
_chemical_formula_structural       Cd8O4C16H4O4C4O8C4O4H8C12H4C4H4C4H4C12O24C8H4C4H4C4O8
_chemical_formula_sum              "Cd8 O52 C72 H32"
_cell_length_a       13.2067
_cell_length_b       15.497
_cell_length_c       16.513
_cell_angle_alpha    90
_cell_angle_beta     108.694
_cell_angle_gamma    90

_space_group_name_H-M_alt    "P 1"
_space_group_IT_number       1

loop_
  _space_group_symop_operation_xyz
  'x, y, z'

loop_
  _atom_site_type_symbol
  _atom_site_label
  _atom_site_symmetry_multiplicity
  _atom_site_fract_x
  _atom_site_fract_y
  _atom_site_fract_z
  _atom_site_occupancy
  Cd  Cd1       1.0  0.20287  0.33643  0.35237  1.0000
  Cd  Cd2       1.0  0.20287  0.66357  0.85237  1.0000
  Cd  Cd3       1.0  0.70287  0.83643  0.35237  1.0000
  Cd  Cd4       1.0  0.70287  0.16357  0.85237  1.0000
  Cd  Cd5       1.0  0.18485  0.14625  0.50404  1.0000
  Cd  Cd6       1.0  0.18485  0.85375  0.00404  1.0000
  Cd  Cd7       1.0  0.68485  0.64625  0.50404  1.0000
  Cd  Cd8       1.0  0.68485  0.35375  0.00404  1.0000
  O   O1        1.0  0.04830  0.25400  0.52320  1.0000
  O   O2        1.0  0.04830  0.74600  0.02320  1.0000
  O   O3        1.0  0.54830  0.75400  0.52320  1.0000
  O   O4        1.0  0.54830  0.24600  0.02320  1.0000
  C   C1        1.0  0.94900  0.33680  0.40370  1.0000
  C   C2        1.0  0.94900  0.66320  0.90370  1.0000
  C   C3        1.0  0.44900  0.83680  0.40370  1.0000
  C   C4        1.0  0.44900  0.16320  0.90370  1.0000
  C   C5        1.0  0.03750  0.27600  0.44850  1.0000
  C   C6        1.0  0.03750  0.72400  0.94850  1.0000
  C   C7        1.0  0.53750  0.77600  0.44850  1.0000
  C   C8        1.0  0.53750  0.22400  0.94850  1.0000
  C   C9        1.0  0.46690  0.17050  0.45490  1.0000
  C   C10       1.0  0.46690  0.82950  0.95490  1.0000
  C   C11       1.0  0.96690  0.67050  0.45490  1.0000
  C   C12       1.0  0.96690  0.32950  0.95490  1.0000
  C   C13       1.0  0.51130  0.17480  0.54300  1.0000
  C   C14       1.0  0.51130  0.82520  0.04300  1.0000
  C   C15       1.0  0.01130  0.67480  0.54300  1.0000
  C   C16       1.0  0.01130  0.32520  0.04300  1.0000
  H   H1        1.0  0.47950  0.21120  0.57440  1.0000
  H   H2        1.0  0.47950  0.78880  0.07440  1.0000
  H   H3        1.0  0.97950  0.71120  0.57440  1.0000
  H   H4        1.0  0.97950  0.28880  0.07440  1.0000
  O   O5        1.0  0.09630  0.24810  0.40740  1.0000
  O   O6        1.0  0.09630  0.75190  0.90740  1.0000
  O   O7        1.0  0.59630  0.74810  0.40740  1.0000
  O   O8        1.0  0.59630  0.25190  0.90740  1.0000
  C   C17       1.0  0.37760  0.22970  0.41220  1.0000
  C   C18       1.0  0.37760  0.77030  0.91220  1.0000
  C   C19       1.0  0.87760  0.72970  0.41220  1.0000
  C   C20       1.0  0.87760  0.27030  0.91220  1.0000
  O   O9        1.0  0.32100  0.25720  0.45650  1.0000
  O   O10       1.0  0.32100  0.74280  0.95650  1.0000
  O   O11       1.0  0.82100  0.75720  0.45650  1.0000
  O   O12       1.0  0.82100  0.24280  0.95650  1.0000
  O   O13       1.0  0.36160  0.25440  0.33660  1.0000
  O   O14       1.0  0.36160  0.74560  0.83660  1.0000
  O   O15       1.0  0.86160  0.75440  0.33660  1.0000
  O   O16       1.0  0.86160  0.24560  0.83660  1.0000
  C   C21       1.0  0.59540  0.05890  0.45210  1.0000
  C   C22       1.0  0.59540  0.94110  0.95210  1.0000
  C   C23       1.0  0.09540  0.55890  0.45210  1.0000
  C   C24       1.0  0.09540  0.44110  0.95210  1.0000
  O   O17       1.0  0.01990  0.05810  0.45620  1.0000
  O   O18       1.0  0.01990  0.94190  0.95620  1.0000
  O   O19       1.0  0.51990  0.55810  0.45620  1.0000
  O   O20       1.0  0.51990  0.44190  0.95620  1.0000
  H   H5        1.0  0.03500  0.03200  0.41600  1.0000
  H   H6        1.0  0.03500  0.96800  0.91600  1.0000
  H   H7        1.0  0.53500  0.53200  0.41600  1.0000
  H   H8        1.0  0.53500  0.46800  0.91600  1.0000
  H   H9        1.0  0.98700  0.01800  0.47300  1.0000
  H   H10       1.0  0.98700  0.98200  0.97300  1.0000
  H   H11       1.0  0.48700  0.51800  0.47300  1.0000
  H   H12       1.0  0.48700  0.48200  0.97300  1.0000
  C   C25       1.0  0.63160  0.99080  0.40500  1.0000
  C   C26       1.0  0.63160  0.00920  0.90500  1.0000
  C   C27       1.0  0.13160  0.49080  0.40500  1.0000
  C   C28       1.0  0.13160  0.50920  0.90500  1.0000
  C   C29       1.0  0.81480  0.37420  0.27110  1.0000
  C   C30       1.0  0.81480  0.62580  0.77110  1.0000
  C   C31       1.0  0.31480  0.87420  0.27110  1.0000
  C   C32       1.0  0.31480  0.12580  0.77110  1.0000
  C   C33       1.0  0.90420  0.32570  0.31460  1.0000
  C   C34       1.0  0.90420  0.67430  0.81460  1.0000
  C   C35       1.0  0.40420  0.82570  0.31460  1.0000
  C   C36       1.0  0.40420  0.17430  0.81460  1.0000
  H   H13       1.0  0.93450  0.28610  0.28500  1.0000
  H   H14       1.0  0.93450  0.71390  0.78500  1.0000
  H   H15       1.0  0.43450  0.78610  0.28500  1.0000
  H   H16       1.0  0.43450  0.21390  0.78500  1.0000
  C   C37       1.0  0.90780  0.39680  0.44600  1.0000
  C   C38       1.0  0.90780  0.60320  0.94600  1.0000
  C   C39       1.0  0.40780  0.89680  0.44600  1.0000
  C   C40       1.0  0.40780  0.10320  0.94600  1.0000
  H   H17       1.0  0.93900  0.40370  0.50610  1.0000
  H   H18       1.0  0.93900  0.59630  0.00610  1.0000
  H   H19       1.0  0.43900  0.90370  0.50610  1.0000
  H   H20       1.0  0.43900  0.09630  0.00610  1.0000
  C   C41       1.0  0.77240  0.43430  0.31530  1.0000
  C   C42       1.0  0.77240  0.56570  0.81530  1.0000
  C   C43       1.0  0.27240  0.93430  0.31530  1.0000
  C   C44       1.0  0.27240  0.06570  0.81530  1.0000
  H   H21       1.0  0.71000  0.46610  0.28580  1.0000
  H   H22       1.0  0.71000  0.53390  0.78580  1.0000
  H   H23       1.0  0.21000  0.96610  0.28580  1.0000
  H   H24       1.0  0.21000  0.03390  0.78580  1.0000
  C   C45       1.0  0.82160  0.44690  0.40210  1.0000
  C   C46       1.0  0.82160  0.55310  0.90210  1.0000
  C   C47       1.0  0.32160  0.94690  0.40210  1.0000
  C   C48       1.0  0.32160  0.05310  0.90210  1.0000
  C   C49       1.0  0.77950  0.51680  0.44490  1.0000
  C   C50       1.0  0.77950  0.48320  0.94490  1.0000
  C   C51       1.0  0.27950  0.01680  0.44490  1.0000
  C   C52       1.0  0.27950  0.98320  0.94490  1.0000
  C   C53       1.0  0.76130  0.36130  0.17540  1.0000
  C   C54       1.0  0.76130  0.63870  0.67540  1.0000
  C   C55       1.0  0.26130  0.86130  0.17540  1.0000
  C   C56       1.0  0.26130  0.13870  0.67540  1.0000
  O   O21       1.0  0.68160  0.40730  0.13830  1.0000
  O   O22       1.0  0.68160  0.59270  0.63830  1.0000
  O   O23       1.0  0.18160  0.90730  0.13830  1.0000
  O   O24       1.0  0.18160  0.09270  0.63830  1.0000
  O   O25       1.0  0.80850  0.51990  0.52510  1.0000
  O   O26       1.0  0.80850  0.48010  0.02510  1.0000
  O   O27       1.0  0.30850  0.01990  0.52510  1.0000
  O   O28       1.0  0.30850  0.98010  0.02510  1.0000
  O   O29       1.0  0.58370  0.97750  0.32700  1.0000
  O   O30       1.0  0.58370  0.02250  0.82700  1.0000
  O   O31       1.0  0.08370  0.47750  0.32700  1.0000
  O   O32       1.0  0.08370  0.52250  0.82700  1.0000
  O   O33       1.0  0.79950  0.30690  0.13710  1.0000
  O   O34       1.0  0.79950  0.69310  0.63710  1.0000
  O   O35       1.0  0.29950  0.80690  0.13710  1.0000
  O   O36       1.0  0.29950  0.19310  0.63710  1.0000
  O   O37       1.0  0.71520  0.56990  0.39740  1.0000
  O   O38       1.0  0.71520  0.43010  0.89740  1.0000
  O   O39       1.0  0.21520  0.06990  0.39740  1.0000
  O   O40       1.0  0.21520  0.93010  0.89740  1.0000
  O   O41       1.0  0.71090  0.94300  0.44610  1.0000
  O   O42       1.0  0.71090  0.05700  0.94610  1.0000
  O   O43       1.0  0.21090  0.44300  0.44610  1.0000
  O   O44       1.0  0.21090  0.55700  0.94610  1.0000
  C   C57       1.0  0.60180  0.12680  0.58640  1.0000
  C   C58       1.0  0.60180  0.87320  0.08640  1.0000
  C   C59       1.0  0.10180  0.62680  0.58640  1.0000
  C   C60       1.0  0.10180  0.37320  0.08640  1.0000
  C   C61       1.0  0.64340  0.06960  0.54020  1.0000
  C   C62       1.0  0.64340  0.93040  0.04020  1.0000
  C   C63       1.0  0.14340  0.56960  0.54020  1.0000
  C   C64       1.0  0.14340  0.43040  0.04020  1.0000
  H   H25       1.0  0.70560  0.03720  0.56910  1.0000
  H   H26       1.0  0.70560  0.96280  0.06910  1.0000
  H   H27       1.0  0.20560  0.53720  0.56910  1.0000
  H   H28       1.0  0.20560  0.46280  0.06910  1.0000
  C   C65       1.0  0.50750  0.11130  0.40960  1.0000
  C   C66       1.0  0.50750  0.88870  0.90960  1.0000
  C   C67       1.0  0.00750  0.61130  0.40960  1.0000
  C   C68       1.0  0.00750  0.38870  0.90960  1.0000
  H   H29       1.0  0.47550  0.10640  0.34940  1.0000
  H   H30       1.0  0.47550  0.89360  0.84940  1.0000
  H   H31       1.0  0.97550  0.60640  0.34940  1.0000
  H   H32       1.0  0.97550  0.39360  0.84940  1.0000
  C   C69       1.0  0.65240  0.13740  0.68150  1.0000
  C   C70       1.0  0.65240  0.86260  0.18150  1.0000
  C   C71       1.0  0.15240  0.63740  0.68150  1.0000
  C   C72       1.0  0.15240  0.36260  0.18150  1.0000
  O   O45       1.0  0.61240  0.19620  0.71730  1.0000
  O   O46       1.0  0.61240  0.80380  0.21730  1.0000
  O   O47       1.0  0.11240  0.69620  0.71730  1.0000
  O   O48       1.0  0.11240  0.30380  0.21730  1.0000
  O   O49       1.0  0.72780  0.09010  0.72190  1.0000
  O   O50       1.0  0.72780  0.90990  0.22190  1.0000
  O   O51       1.0  0.22780  0.59010  0.72190  1.0000
  O   O52       1.0  0.22780  0.40990  0.22190  1.0000
