data_image0
_chemical_formula_structural       Zn4C24H8C8H8C16H8C8N8O32
_chemical_formula_sum              "Zn4 C56 H24 N8 O32"
_cell_length_a       14.565
_cell_length_b       9.28
_cell_length_c       20.699
_cell_angle_alpha    90
_cell_angle_beta     108.01
_cell_angle_gamma    90

_space_group_name_H-M_alt    "P 1"
_space_group_IT_number       1

loop_
  _space_group_symop_operation_xyz
  'x, y, z'

loop_
  _atom_site_type_symbol
  _atom_site_label
  _atom_site_symmetry_multiplicity
  _atom_site_fract_x
  _atom_site_fract_y
  _atom_site_fract_z
  _atom_site_occupancy
  Zn  Zn1       1.0  0.00000  0.23976  0.25000  1.0000
  Zn  Zn2       1.0  0.50000  0.73976  0.25000  1.0000
  Zn  Zn3       1.0  0.00000  0.76024  0.75000  1.0000
  Zn  Zn4       1.0  0.50000  0.26024  0.75000  1.0000
  C   C1        1.0  0.54220  0.87140  0.38760  1.0000
  C   C2        1.0  0.45780  0.87140  0.11240  1.0000
  C   C3        1.0  0.04220  0.37140  0.38760  1.0000
  C   C4        1.0  0.95780  0.37140  0.11240  1.0000
  C   C5        1.0  0.45780  0.12860  0.61240  1.0000
  C   C6        1.0  0.54220  0.12860  0.88760  1.0000
  C   C7        1.0  0.95780  0.62860  0.61240  1.0000
  C   C8        1.0  0.04220  0.62860  0.88760  1.0000
  C   C9        1.0  0.44020  0.92180  0.35000  1.0000
  C   C10       1.0  0.55980  0.92180  0.15000  1.0000
  C   C11       1.0  0.94020  0.42180  0.35000  1.0000
  C   C12       1.0  0.05980  0.42180  0.15000  1.0000
  C   C13       1.0  0.55980  0.07820  0.65000  1.0000
  C   C14       1.0  0.44020  0.07820  0.85000  1.0000
  C   C15       1.0  0.05980  0.57820  0.65000  1.0000
  C   C16       1.0  0.94020  0.57820  0.85000  1.0000
  C   C17       1.0  0.38640  0.00070  0.38140  1.0000
  C   C18       1.0  0.61360  0.00070  0.11860  1.0000
  C   C19       1.0  0.88640  0.50070  0.38140  1.0000
  C   C20       1.0  0.11360  0.50070  0.11860  1.0000
  C   C21       1.0  0.61360  0.99930  0.61860  1.0000
  C   C22       1.0  0.38640  0.99930  0.88140  1.0000
  C   C23       1.0  0.11360  0.49930  0.61860  1.0000
  C   C24       1.0  0.88640  0.49930  0.88140  1.0000
  H   H1        1.0  0.41130  0.02660  0.42690  1.0000
  H   H2        1.0  0.58870  0.02660  0.07310  1.0000
  H   H3        1.0  0.91130  0.52660  0.42690  1.0000
  H   H4        1.0  0.08870  0.52660  0.07310  1.0000
  H   H5        1.0  0.58870  0.97340  0.57310  1.0000
  H   H6        1.0  0.41130  0.97340  0.92690  1.0000
  H   H7        1.0  0.08870  0.47340  0.57310  1.0000
  H   H8        1.0  0.91130  0.47340  0.92690  1.0000
  C   C25       1.0  0.29350  0.04050  0.34300  1.0000
  C   C26       1.0  0.70650  0.04050  0.15700  1.0000
  C   C27       1.0  0.79350  0.54050  0.34300  1.0000
  C   C28       1.0  0.20650  0.54050  0.15700  1.0000
  C   C29       1.0  0.70650  0.95950  0.65700  1.0000
  C   C30       1.0  0.29350  0.95950  0.84300  1.0000
  C   C31       1.0  0.20650  0.45950  0.65700  1.0000
  C   C32       1.0  0.79350  0.45950  0.84300  1.0000
  H   H9        1.0  0.25510  0.09310  0.36290  1.0000
  H   H10       1.0  0.74490  0.09310  0.13710  1.0000
  H   H11       1.0  0.75510  0.59310  0.36290  1.0000
  H   H12       1.0  0.24490  0.59310  0.13710  1.0000
  H   H13       1.0  0.74490  0.90690  0.63710  1.0000
  H   H14       1.0  0.25510  0.90690  0.86290  1.0000
  H   H15       1.0  0.24490  0.40690  0.63710  1.0000
  H   H16       1.0  0.75510  0.40690  0.86290  1.0000
  C   C33       1.0  0.25840  0.00250  0.27560  1.0000
  C   C34       1.0  0.74160  0.00250  0.22440  1.0000
  C   C35       1.0  0.75840  0.50250  0.27560  1.0000
  C   C36       1.0  0.24160  0.50250  0.22440  1.0000
  C   C37       1.0  0.74160  0.99750  0.72440  1.0000
  C   C38       1.0  0.25840  0.99750  0.77560  1.0000
  C   C39       1.0  0.24160  0.49750  0.72440  1.0000
  C   C40       1.0  0.75840  0.49750  0.77560  1.0000
  C   C41       1.0  0.31810  0.92470  0.24850  1.0000
  C   C42       1.0  0.68190  0.92470  0.25150  1.0000
  C   C43       1.0  0.81810  0.42470  0.24850  1.0000
  C   C44       1.0  0.18190  0.42470  0.25150  1.0000
  C   C45       1.0  0.68190  0.07530  0.75150  1.0000
  C   C46       1.0  0.31810  0.07530  0.74850  1.0000
  C   C47       1.0  0.18190  0.57530  0.75150  1.0000
  C   C48       1.0  0.81810  0.57530  0.74850  1.0000
  H   H17       1.0  0.29530  0.89950  0.20280  1.0000
  H   H18       1.0  0.70470  0.89950  0.29720  1.0000
  H   H19       1.0  0.79530  0.39950  0.20280  1.0000
  H   H20       1.0  0.20470  0.39950  0.29720  1.0000
  H   H21       1.0  0.70470  0.10050  0.79720  1.0000
  H   H22       1.0  0.29530  0.10050  0.70280  1.0000
  H   H23       1.0  0.20470  0.60050  0.79720  1.0000
  H   H24       1.0  0.79530  0.60050  0.70280  1.0000
  C   C49       1.0  0.15650  0.04750  0.23160  1.0000
  C   C50       1.0  0.84350  0.04750  0.26840  1.0000
  C   C51       1.0  0.65650  0.54750  0.23160  1.0000
  C   C52       1.0  0.34350  0.54750  0.26840  1.0000
  C   C53       1.0  0.84350  0.95250  0.76840  1.0000
  C   C54       1.0  0.15650  0.95250  0.73160  1.0000
  C   C55       1.0  0.34350  0.45250  0.76840  1.0000
  C   C56       1.0  0.65650  0.45250  0.73160  1.0000
  N   N1        1.0  0.40730  0.88350  0.28440  1.0000
  N   N2        1.0  0.59270  0.88350  0.21560  1.0000
  N   N3        1.0  0.90730  0.38350  0.28440  1.0000
  N   N4        1.0  0.09270  0.38350  0.21560  1.0000
  N   N5        1.0  0.59270  0.11650  0.71560  1.0000
  N   N6        1.0  0.40730  0.11650  0.78440  1.0000
  N   N7        1.0  0.09270  0.61650  0.71560  1.0000
  N   N8        1.0  0.90730  0.61650  0.78440  1.0000
  O   O1        1.0  0.10300  0.08240  0.26544  1.0000
  O   O2        1.0  0.89700  0.08240  0.23456  1.0000
  O   O3        1.0  0.60300  0.58240  0.26544  1.0000
  O   O4        1.0  0.39700  0.58240  0.23456  1.0000
  O   O5        1.0  0.89700  0.91760  0.73456  1.0000
  O   O6        1.0  0.10300  0.91760  0.76544  1.0000
  O   O7        1.0  0.39700  0.41760  0.73456  1.0000
  O   O8        1.0  0.60300  0.41760  0.76544  1.0000
  O   O9        1.0  0.13890  0.04470  0.17037  1.0000
  O   O10       1.0  0.86110  0.04470  0.32963  1.0000
  O   O11       1.0  0.63890  0.54470  0.17037  1.0000
  O   O12       1.0  0.36110  0.54470  0.32963  1.0000
  O   O13       1.0  0.86110  0.95530  0.82963  1.0000
  O   O14       1.0  0.13890  0.95530  0.67037  1.0000
  O   O15       1.0  0.36110  0.45530  0.82963  1.0000
  O   O16       1.0  0.63890  0.45530  0.67037  1.0000
  O   O17       1.0  0.57990  0.91730  0.44652  1.0000
  O   O18       1.0  0.42010  0.91730  0.05348  1.0000
  O   O19       1.0  0.07990  0.41730  0.44652  1.0000
  O   O20       1.0  0.92010  0.41730  0.05348  1.0000
  O   O21       1.0  0.42010  0.08270  0.55348  1.0000
  O   O22       1.0  0.57990  0.08270  0.94652  1.0000
  O   O23       1.0  0.92010  0.58270  0.55348  1.0000
  O   O24       1.0  0.07990  0.58270  0.94652  1.0000
  O   O25       1.0  0.57960  0.78620  0.35593  1.0000
  O   O26       1.0  0.42040  0.78620  0.14407  1.0000
  O   O27       1.0  0.07960  0.28620  0.35593  1.0000
  O   O28       1.0  0.92040  0.28620  0.14407  1.0000
  O   O29       1.0  0.42040  0.21380  0.64407  1.0000
  O   O30       1.0  0.57960  0.21380  0.85593  1.0000
  O   O31       1.0  0.92040  0.71380  0.64407  1.0000
  O   O32       1.0  0.07960  0.71380  0.85593  1.0000
