data_image0
_chemical_formula_structural       Cd4O24N4C56H24
_chemical_formula_sum              "Cd4 O24 N4 C56 H24"
_cell_length_a       12.5043
_cell_length_b       14.7084
_cell_length_c       7.522
_cell_angle_alpha    90
_cell_angle_beta     102.258
_cell_angle_gamma    90

_space_group_name_H-M_alt    "P 1"
_space_group_IT_number       1

loop_
  _space_group_symop_operation_xyz
  'x, y, z'

loop_
  _atom_site_type_symbol
  _atom_site_label
  _atom_site_symmetry_multiplicity
  _atom_site_fract_x
  _atom_site_fract_y
  _atom_site_fract_z
  _atom_site_occupancy
  Cd  Cd1       1.0  0.17747  0.08260  0.51109  1.0000
  Cd  Cd2       1.0  0.82253  0.58260  0.98891  1.0000
  Cd  Cd3       1.0  0.82253  0.91740  0.48891  1.0000
  Cd  Cd4       1.0  0.17747  0.41740  0.01109  1.0000
  O   O1        1.0  0.16585  0.21100  0.69320  1.0000
  O   O2        1.0  0.83415  0.71100  0.80680  1.0000
  O   O3        1.0  0.83415  0.78900  0.30680  1.0000
  O   O4        1.0  0.16585  0.28900  0.19320  1.0000
  O   O5        1.0  0.26759  0.32329  0.83760  1.0000
  O   O6        1.0  0.73241  0.82329  0.66240  1.0000
  O   O7        1.0  0.73241  0.67671  0.16240  1.0000
  O   O8        1.0  0.26759  0.17671  0.33760  1.0000
  O   O9        1.0  0.74024  0.46252  0.07910  1.0000
  O   O10       1.0  0.25976  0.96252  0.42090  1.0000
  O   O11       1.0  0.25976  0.53748  0.92090  1.0000
  O   O12       1.0  0.74024  0.03748  0.57910  1.0000
  O   O13       1.0  0.87181  0.43944  0.32290  1.0000
  O   O14       1.0  0.12819  0.93944  0.17710  1.0000
  O   O15       1.0  0.12819  0.56056  0.67710  1.0000
  O   O16       1.0  0.87181  0.06056  0.82290  1.0000
  O   O17       1.0  0.01578  0.12389  0.35510  1.0000
  O   O18       1.0  0.98422  0.62389  0.14490  1.0000
  O   O19       1.0  0.98422  0.87611  0.64490  1.0000
  O   O20       1.0  0.01578  0.37611  0.85510  1.0000
  O   O21       1.0  0.90072  0.00607  0.30100  1.0000
  O   O22       1.0  0.09928  0.50607  0.19900  1.0000
  O   O23       1.0  0.09928  0.99393  0.69900  1.0000
  O   O24       1.0  0.90072  0.49393  0.80100  1.0000
  N   N1        1.0  0.34580  0.10480  0.71920  1.0000
  N   N2        1.0  0.65420  0.60480  0.78080  1.0000
  N   N3        1.0  0.65420  0.89520  0.28080  1.0000
  N   N4        1.0  0.34580  0.39520  0.21920  1.0000
  C   C1        1.0  0.25490  0.24450  0.77780  1.0000
  C   C2        1.0  0.74510  0.74450  0.72220  1.0000
  C   C3        1.0  0.74510  0.75550  0.22220  1.0000
  C   C4        1.0  0.25490  0.25550  0.27780  1.0000
  C   C5        1.0  0.35600  0.18440  0.80680  1.0000
  C   C6        1.0  0.64400  0.68440  0.69320  1.0000
  C   C7        1.0  0.64400  0.81560  0.19320  1.0000
  C   C8        1.0  0.35600  0.31560  0.30680  1.0000
  C   C9        1.0  0.45330  0.21320  0.91510  1.0000
  C   C10       1.0  0.54670  0.71320  0.58490  1.0000
  C   C11       1.0  0.54670  0.78680  0.08490  1.0000
  C   C12       1.0  0.45330  0.28680  0.41510  1.0000
  C   C13       1.0  0.54700  0.15900  0.93540  1.0000
  C   C14       1.0  0.45300  0.65900  0.56460  1.0000
  C   C15       1.0  0.45300  0.84100  0.06460  1.0000
  C   C16       1.0  0.54700  0.34100  0.43540  1.0000
  C   C17       1.0  0.53610  0.07740  0.84020  1.0000
  C   C18       1.0  0.46390  0.57740  0.65980  1.0000
  C   C19       1.0  0.46390  0.92260  0.15980  1.0000
  C   C20       1.0  0.53610  0.42260  0.34020  1.0000
  C   C21       1.0  0.43530  0.05290  0.73480  1.0000
  C   C22       1.0  0.56470  0.55290  0.76520  1.0000
  C   C23       1.0  0.56470  0.94710  0.26520  1.0000
  C   C24       1.0  0.43530  0.44710  0.23480  1.0000
  C   C25       1.0  0.65290  0.18930  0.04880  1.0000
  C   C26       1.0  0.34710  0.68930  0.45120  1.0000
  C   C27       1.0  0.34710  0.81070  0.95120  1.0000
  C   C28       1.0  0.65290  0.31070  0.54880  1.0000
  C   C29       1.0  0.67630  0.28170  0.07250  1.0000
  C   C30       1.0  0.32370  0.78170  0.42750  1.0000
  C   C31       1.0  0.32370  0.71830  0.92750  1.0000
  C   C32       1.0  0.67630  0.21830  0.57250  1.0000
  C   C33       1.0  0.77450  0.31170  0.17570  1.0000
  C   C34       1.0  0.22550  0.81170  0.32430  1.0000
  C   C35       1.0  0.22550  0.68830  0.82430  1.0000
  C   C36       1.0  0.77450  0.18830  0.67570  1.0000
  C   C37       1.0  0.85320  0.24810  0.25270  1.0000
  C   C38       1.0  0.14680  0.74810  0.24730  1.0000
  C   C39       1.0  0.14680  0.75190  0.74730  1.0000
  C   C40       1.0  0.85320  0.25190  0.75270  1.0000
  C   C41       1.0  0.83300  0.15600  0.22720  1.0000
  C   C42       1.0  0.16700  0.65600  0.27280  1.0000
  C   C43       1.0  0.16700  0.84400  0.77280  1.0000
  C   C44       1.0  0.83300  0.34400  0.72720  1.0000
  C   C45       1.0  0.73240  0.12670  0.12810  1.0000
  C   C46       1.0  0.26760  0.62670  0.37190  1.0000
  C   C47       1.0  0.26760  0.87330  0.87190  1.0000
  C   C48       1.0  0.73240  0.37330  0.62810  1.0000
  C   C49       1.0  0.79860  0.41210  0.19620  1.0000
  C   C50       1.0  0.20140  0.91210  0.30380  1.0000
  C   C51       1.0  0.20140  0.58790  0.80380  1.0000
  C   C52       1.0  0.79860  0.08790  0.69620  1.0000
  C   C53       1.0  0.92260  0.08930  0.30270  1.0000
  C   C54       1.0  0.07740  0.58930  0.19730  1.0000
  C   C55       1.0  0.07740  0.91070  0.69730  1.0000
  C   C56       1.0  0.92260  0.41070  0.80270  1.0000
  H   H1        1.0  0.62800  0.32200  0.01600  1.0000
  H   H2        1.0  0.37200  0.82200  0.48400  1.0000
  H   H3        1.0  0.37200  0.67800  0.98400  1.0000
  H   H4        1.0  0.62800  0.17800  0.51600  1.0000
  H   H5        1.0  0.59700  0.03800  0.84200  1.0000
  H   H6        1.0  0.40300  0.53800  0.65800  1.0000
  H   H7        1.0  0.40300  0.96200  0.15800  1.0000
  H   H8        1.0  0.59700  0.46200  0.34200  1.0000
  H   H9        1.0  0.91900  0.26500  0.31000  1.0000
  H   H10       1.0  0.08100  0.76500  0.19000  1.0000
  H   H11       1.0  0.08100  0.73500  0.69000  1.0000
  H   H12       1.0  0.91900  0.23500  0.81000  1.0000
  H   H13       1.0  0.45100  0.26600  0.97300  1.0000
  H   H14       1.0  0.54900  0.76600  0.52700  1.0000
  H   H15       1.0  0.54900  0.73400  0.02700  1.0000
  H   H16       1.0  0.45100  0.23400  0.47300  1.0000
  H   H17       1.0  0.71700  0.06700  0.11800  1.0000
  H   H18       1.0  0.28300  0.56700  0.38200  1.0000
  H   H19       1.0  0.28300  0.93300  0.88200  1.0000
  H   H20       1.0  0.71700  0.43300  0.61800  1.0000
  H   H21       1.0  0.42700  0.99800  0.66600  1.0000
  H   H22       1.0  0.57300  0.49800  0.83400  1.0000
  H   H23       1.0  0.57300  0.00200  0.33400  1.0000
  H   H24       1.0  0.42700  0.50200  0.16600  1.0000
