data_image0
_chemical_formula_structural       N4C18H2C2H2C2H2C4H2C2H6C2H2C4H2C2H2C2H2C2H6N2C2H2C2H2C2H2C4H2C2H6Co2N16W2
_chemical_formula_sum              "N22 C52 H42 Co2 W2"
_cell_length_a       10.56
_cell_length_b       13.036
_cell_length_c       18.803
_cell_angle_alpha    84.554
_cell_angle_beta     74.188
_cell_angle_gamma    68.166

_space_group_name_H-M_alt    "P 1"
_space_group_IT_number       1

loop_
  _space_group_symop_operation_xyz
  'x, y, z'

loop_
  _atom_site_type_symbol
  _atom_site_label
  _atom_site_symmetry_multiplicity
  _atom_site_fract_x
  _atom_site_fract_y
  _atom_site_fract_z
  _atom_site_occupancy
  N   N1        1.0  0.52180  0.99250  0.36890  1.0000
  N   N2        1.0  0.47820  0.00750  0.63110  1.0000
  N   N3        1.0  0.10170  0.03840  0.36230  1.0000
  N   N4        1.0  0.89830  0.96160  0.63770  1.0000
  C   C1        1.0  0.79000  0.97380  0.45530  1.0000
  C   C2        1.0  0.21000  0.02620  0.54470  1.0000
  C   C3        1.0  0.00700  0.01220  0.35580  1.0000
  C   C4        1.0  0.99300  0.98780  0.64420  1.0000
  C   C5        1.0  0.74500  0.12940  0.35550  1.0000
  C   C6        1.0  0.25500  0.87060  0.64450  1.0000
  C   C7        1.0  0.84030  0.03100  0.23110  1.0000
  C   C8        1.0  0.15970  0.96900  0.76890  1.0000
  C   C9        1.0  0.05900  0.87250  0.25720  1.0000
  C   C10       1.0  0.94100  0.12750  0.74280  1.0000
  C   C11       1.0  0.83200  0.82890  0.27860  1.0000
  C   C12       1.0  0.16800  0.17110  0.72140  1.0000
  C   C13       1.0  0.63670  0.97710  0.36020  1.0000
  C   C14       1.0  0.36330  0.02290  0.63980  1.0000
  C   C15       1.0  0.96200  0.80300  0.38850  1.0000
  C   C16       1.0  0.03800  0.19700  0.61150  1.0000
  C   C17       1.0  0.68100  0.76870  0.57480  1.0000
  C   C18       1.0  0.31900  0.23130  0.42520  1.0000
  H   H1        1.0  0.60650  0.82170  0.55930  1.0000
  H   H2        1.0  0.39350  0.17830  0.44070  1.0000
  C   C19       1.0  0.72100  0.65800  0.55430  1.0000
  C   C20       1.0  0.27900  0.34200  0.44570  1.0000
  H   H3        1.0  0.67510  0.63640  0.52650  1.0000
  H   H4        1.0  0.32490  0.36360  0.47350  1.0000
  C   C21       1.0  0.83900  0.58110  0.57910  1.0000
  C   C22       1.0  0.16100  0.41890  0.42090  1.0000
  H   H5        1.0  0.87230  0.50720  0.56530  1.0000
  H   H6        1.0  0.12770  0.49280  0.43470  1.0000
  C   C23       1.0  0.90100  0.61180  0.62080  1.0000
  C   C24       1.0  0.09900  0.38820  0.37920  1.0000
  C   C25       1.0  0.85800  0.72270  0.63620  1.0000
  C   C26       1.0  0.14200  0.27730  0.36380  1.0000
  H   H7        1.0  0.90810  0.74450  0.66150  1.0000
  H   H8        1.0  0.09190  0.25550  0.33850  1.0000
  C   C27       1.0  0.02200  0.52700  0.64230  1.0000
  C   C28       1.0  0.97800  0.47300  0.35770  1.0000
  H   H9        1.0  0.10420  0.51050  0.60120  1.0000
  H   H10       1.0  0.89580  0.48950  0.39880  1.0000
  H   H11       1.0  0.00180  0.46070  0.65660  1.0000
  H   H12       1.0  0.99820  0.53930  0.34340  1.0000
  H   H13       1.0  0.03980  0.55340  0.68310  1.0000
  H   H14       1.0  0.96020  0.44660  0.31690  1.0000
  C   C29       1.0  0.71070  0.96640  0.79740  1.0000
  C   C30       1.0  0.28930  0.03360  0.20260  1.0000
  H   H15       1.0  0.79030  0.98330  0.77420  1.0000
  H   H16       1.0  0.20970  0.01670  0.22580  1.0000
  C   C31       1.0  0.68060  0.95080  0.87500  1.0000
  C   C32       1.0  0.31940  0.04920  0.12500  1.0000
  C   C33       1.0  0.55800  0.92920  0.90840  1.0000
  C   C34       1.0  0.44200  0.07080  0.09160  1.0000
  H   H17       1.0  0.53450  0.91770  0.95910  1.0000
  H   H18       1.0  0.46550  0.08230  0.04090  1.0000
  C   C35       1.0  0.47500  0.92500  0.86660  1.0000
  C   C36       1.0  0.52500  0.07500  0.13340  1.0000
  H   H19       1.0  0.39110  0.91280  0.88870  1.0000
  H   H20       1.0  0.60890  0.08720  0.11130  1.0000
  C   C37       1.0  0.51300  0.93860  0.79080  1.0000
  C   C38       1.0  0.48700  0.06140  0.20920  1.0000
  H   H21       1.0  0.45470  0.93420  0.76280  1.0000
  H   H22       1.0  0.54530  0.06580  0.23720  1.0000
  C   C39       1.0  0.77900  0.96000  0.91730  1.0000
  C   C40       1.0  0.22100  0.04000  0.08270  1.0000
  H   H23       1.0  0.85550  0.89040  0.91520  1.0000
  H   H24       1.0  0.14450  0.10960  0.08480  1.0000
  H   H25       1.0  0.72810  0.97890  0.96790  1.0000
  H   H26       1.0  0.27190  0.02110  0.03210  1.0000
  H   H27       1.0  0.81540  0.01620  0.89560  1.0000
  H   H28       1.0  0.18460  0.98380  0.10440  1.0000
  N   N5        1.0  0.63250  0.15490  0.63650  1.0000
  N   N6        1.0  0.36750  0.84510  0.36350  1.0000
  C   C41       1.0  0.49690  0.21720  0.67600  1.0000
  C   C42       1.0  0.50310  0.78280  0.32400  1.0000
  H   H29       1.0  0.44800  0.18540  0.71470  1.0000
  H   H30       1.0  0.55200  0.81460  0.28530  1.0000
  C   C43       1.0  0.43450  0.32720  0.65780  1.0000
  C   C44       1.0  0.56550  0.67280  0.34220  1.0000
  H   H31       1.0  0.34380  0.36890  0.68430  1.0000
  H   H32       1.0  0.65620  0.63110  0.31570  1.0000
  C   C45       1.0  0.50800  0.37470  0.60010  1.0000
  C   C46       1.0  0.49200  0.62530  0.39990  1.0000
  H   H33       1.0  0.46590  0.44830  0.58790  1.0000
  H   H34       1.0  0.53410  0.55170  0.41210  1.0000
  C   C47       1.0  0.64300  0.31240  0.56050  1.0000
  C   C48       1.0  0.35700  0.68760  0.43950  1.0000
  C   C49       1.0  0.70560  0.20250  0.57870  1.0000
  C   C50       1.0  0.29440  0.79750  0.42130  1.0000
  H   H35       1.0  0.79630  0.16070  0.55220  1.0000
  H   H36       1.0  0.20370  0.83930  0.44780  1.0000
  C   C51       1.0  0.73300  0.35800  0.49500  1.0000
  C   C52       1.0  0.26700  0.64200  0.50500  1.0000
  H   H37       1.0  0.68230  0.43530  0.48860  1.0000
  H   H38       1.0  0.31770  0.56470  0.51140  1.0000
  H   H39       1.0  0.75280  0.31840  0.45070  1.0000
  H   H40       1.0  0.24720  0.68160  0.54930  1.0000
  H   H41       1.0  0.82060  0.34990  0.50580  1.0000
  H   H42       1.0  0.17940  0.65010  0.49420  1.0000
  Co  Co1       1.0  0.69040  0.97549  0.63365  1.0000
  Co  Co2       1.0  0.30960  0.02451  0.36635  1.0000
  N   N7        1.0  0.74850  0.98700  0.51770  1.0000
  N   N8        1.0  0.25150  0.01300  0.48230  1.0000
  N   N9        1.0  0.63120  0.95800  0.75630  1.0000
  N   N10       1.0  0.36880  0.04200  0.24370  1.0000
  N   N11       1.0  0.74690  0.80190  0.61670  1.0000
  N   N12       1.0  0.25310  0.19810  0.38330  1.0000
  N   N13       1.0  0.69000  0.22250  0.36430  1.0000
  N   N14       1.0  0.31000  0.77750  0.63570  1.0000
  N   N15       1.0  0.82000  0.07240  0.17550  1.0000
  N   N16       1.0  0.18000  0.92760  0.82450  1.0000
  N   N17       1.0  0.16590  0.83060  0.21630  1.0000
  N   N18       1.0  0.83410  0.16940  0.78370  1.0000
  N   N19       1.0  0.82200  0.76300  0.24730  1.0000
  N   N20       1.0  0.17800  0.23700  0.75270  1.0000
  N   N21       1.0  0.01700  0.71800  0.41290  1.0000
  N   N22       1.0  0.98300  0.28200  0.58710  1.0000
  W   W1        1.0  0.85981  0.95414  0.33601  1.0000
  W   W2        1.0  0.14019  0.04586  0.66399  1.0000
