data_image0
_chemical_formula_structural       U12O52N8C4H4C4H4C4H4C4H4C4H4C4H4C4H4C4H4C16
_chemical_formula_sum              "U12 O52 N8 C48 H32"
_cell_length_a       7.19
_cell_length_b       20.007
_cell_length_c       13.807
_cell_angle_alpha    90
_cell_angle_beta     93.28
_cell_angle_gamma    90

_space_group_name_H-M_alt    "P 1"
_space_group_IT_number       1

loop_
  _space_group_symop_operation_xyz
  'x, y, z'

loop_
  _atom_site_type_symbol
  _atom_site_label
  _atom_site_symmetry_multiplicity
  _atom_site_fract_x
  _atom_site_fract_y
  _atom_site_fract_z
  _atom_site_occupancy
  U   U1        1.0  0.25732  0.67761  0.62076  1.0000
  U   U2        1.0  0.74268  0.17761  0.87924  1.0000
  U   U3        1.0  0.74268  0.32239  0.37924  1.0000
  U   U4        1.0  0.25732  0.82239  0.12076  1.0000
  U   U5        1.0  0.23700  0.78205  0.85841  1.0000
  U   U6        1.0  0.76300  0.28205  0.64159  1.0000
  U   U7        1.0  0.76300  0.21795  0.14159  1.0000
  U   U8        1.0  0.23700  0.71795  0.35841  1.0000
  U   U9        1.0  0.23346  0.85786  0.59292  1.0000
  U   U10       1.0  0.76654  0.35786  0.90708  1.0000
  U   U11       1.0  0.76654  0.14214  0.40708  1.0000
  U   U12       1.0  0.23346  0.64214  0.09292  1.0000
  O   O1        1.0  0.22470  0.58930  0.92950  1.0000
  O   O2        1.0  0.77530  0.08930  0.57050  1.0000
  O   O3        1.0  0.77530  0.41070  0.07050  1.0000
  O   O4        1.0  0.22470  0.91070  0.42950  1.0000
  O   O5        1.0  0.50370  0.68330  0.63520  1.0000
  O   O6        1.0  0.49630  0.18330  0.86480  1.0000
  O   O7        1.0  0.49630  0.31670  0.36480  1.0000
  O   O8        1.0  0.50370  0.81670  0.13520  1.0000
  O   O9        1.0  0.48690  0.77640  0.86000  1.0000
  O   O10       1.0  0.51310  0.27640  0.64000  1.0000
  O   O11       1.0  0.51310  0.22360  0.14000  1.0000
  O   O12       1.0  0.48690  0.72360  0.36000  1.0000
  O   O13       1.0  0.48830  0.85680  0.59640  1.0000
  O   O14       1.0  0.51170  0.35680  0.90360  1.0000
  O   O15       1.0  0.51170  0.14320  0.40360  1.0000
  O   O16       1.0  0.48830  0.64320  0.09640  1.0000
  O   O17       1.0  0.23630  0.65750  0.80450  1.0000
  O   O18       1.0  0.76370  0.15750  0.69550  1.0000
  O   O19       1.0  0.76370  0.34250  0.19550  1.0000
  O   O20       1.0  0.23630  0.84250  0.30450  1.0000
  O   O21       1.0  0.01290  0.66360  0.61360  1.0000
  O   O22       1.0  0.98710  0.16360  0.88640  1.0000
  O   O23       1.0  0.98710  0.33640  0.38640  1.0000
  O   O24       1.0  0.01290  0.83640  0.11360  1.0000
  O   O25       1.0  0.98880  0.78570  0.85650  1.0000
  O   O26       1.0  0.01120  0.28570  0.64350  1.0000
  O   O27       1.0  0.01120  0.21430  0.14350  1.0000
  O   O28       1.0  0.98880  0.71430  0.35650  1.0000
  O   O29       1.0  0.98460  0.86380  0.58300  1.0000
  O   O30       1.0  0.01540  0.36380  0.91700  1.0000
  O   O31       1.0  0.01540  0.13620  0.41700  1.0000
  O   O32       1.0  0.98460  0.63620  0.08300  1.0000
  O   O33       1.0  0.22330  0.77320  0.69590  1.0000
  O   O34       1.0  0.77670  0.27320  0.80410  1.0000
  O   O35       1.0  0.77670  0.22680  0.30410  1.0000
  O   O36       1.0  0.22330  0.72680  0.19590  1.0000
  O   O37       1.0  0.23250  0.76370  0.50800  1.0000
  O   O38       1.0  0.76750  0.26370  0.99200  1.0000
  O   O39       1.0  0.76750  0.23630  0.49200  1.0000
  O   O40       1.0  0.23250  0.73630  0.00800  1.0000
  O   O41       1.0  0.27800  0.63170  0.47080  1.0000
  O   O42       1.0  0.72200  0.13170  0.02920  1.0000
  O   O43       1.0  0.72200  0.36830  0.52920  1.0000
  O   O44       1.0  0.27800  0.86830  0.97080  1.0000
  O   O45       1.0  0.13820  0.96840  0.87550  1.0000
  O   O46       1.0  0.86180  0.46840  0.62450  1.0000
  O   O47       1.0  0.86180  0.03160  0.12450  1.0000
  O   O48       1.0  0.13820  0.53160  0.37550  1.0000
  O   O49       1.0  0.21940  0.89290  0.76760  1.0000
  O   O50       1.0  0.78060  0.39290  0.73240  1.0000
  O   O51       1.0  0.78060  0.10710  0.23240  1.0000
  O   O52       1.0  0.21940  0.60710  0.26760  1.0000
  N   N1        1.0  0.29120  0.55640  0.68110  1.0000
  N   N2        1.0  0.70880  0.05640  0.81890  1.0000
  N   N3        1.0  0.70880  0.44360  0.31890  1.0000
  N   N4        1.0  0.29120  0.94360  0.18110  1.0000
  N   N5        1.0  0.26010  0.98530  0.63120  1.0000
  N   N6        1.0  0.73990  0.48530  0.86880  1.0000
  N   N7        1.0  0.73990  0.01470  0.36880  1.0000
  N   N8        1.0  0.26010  0.51470  0.13120  1.0000
  C   C1        1.0  0.32500  0.50840  0.62180  1.0000
  C   C2        1.0  0.67500  0.00840  0.87820  1.0000
  C   C3        1.0  0.67500  0.49160  0.37820  1.0000
  C   C4        1.0  0.32500  0.99160  0.12180  1.0000
  H   H1        1.0  0.36000  0.51940  0.55840  1.0000
  H   H2        1.0  0.64000  0.01940  0.94160  1.0000
  H   H3        1.0  0.64000  0.48060  0.44160  1.0000
  H   H4        1.0  0.36000  0.98060  0.05840  1.0000
  C   C5        1.0  0.31100  0.03200  0.57030  1.0000
  C   C6        1.0  0.68900  0.53200  0.92970  1.0000
  C   C7        1.0  0.68900  0.96800  0.42970  1.0000
  C   C8        1.0  0.31100  0.46800  0.07030  1.0000
  H   H5        1.0  0.34340  0.01870  0.50740  1.0000
  H   H6        1.0  0.65660  0.51870  0.99260  1.0000
  H   H7        1.0  0.65660  0.98130  0.49260  1.0000
  H   H8        1.0  0.34340  0.48130  0.00740  1.0000
  C   C9        1.0  0.31400  0.44030  0.64760  1.0000
  C   C10       1.0  0.68600  0.94030  0.85240  1.0000
  C   C11       1.0  0.68600  0.55970  0.35240  1.0000
  C   C12       1.0  0.31400  0.05970  0.14760  1.0000
  H   H9        1.0  0.33790  0.40600  0.60250  1.0000
  H   H10       1.0  0.66210  0.90600  0.89750  1.0000
  H   H11       1.0  0.66210  0.59400  0.39750  1.0000
  H   H12       1.0  0.33790  0.09400  0.10250  1.0000
  C   C13       1.0  0.31800  0.09890  0.59350  1.0000
  C   C14       1.0  0.68200  0.59890  0.90650  1.0000
  C   C15       1.0  0.68200  0.90110  0.40650  1.0000
  C   C16       1.0  0.31800  0.40110  0.09350  1.0000
  H   H13       1.0  0.35130  0.13060  0.54630  1.0000
  H   H14       1.0  0.64870  0.63060  0.95370  1.0000
  H   H15       1.0  0.64870  0.86940  0.45370  1.0000
  H   H16       1.0  0.35130  0.36940  0.04630  1.0000
  C   C17       1.0  0.26600  0.42510  0.74040  1.0000
  C   C18       1.0  0.73400  0.92510  0.75960  1.0000
  C   C19       1.0  0.73400  0.57490  0.25960  1.0000
  C   C20       1.0  0.26600  0.07490  0.24040  1.0000
  H   H17       1.0  0.25130  0.37990  0.75980  1.0000
  H   H18       1.0  0.74870  0.87990  0.74020  1.0000
  H   H19       1.0  0.74870  0.62010  0.24020  1.0000
  H   H20       1.0  0.25130  0.12010  0.25980  1.0000
  C   C21       1.0  0.27600  0.12080  0.68740  1.0000
  C   C22       1.0  0.72400  0.62080  0.81260  1.0000
  C   C23       1.0  0.72400  0.87920  0.31260  1.0000
  C   C24       1.0  0.27600  0.37920  0.18740  1.0000
  H   H21       1.0  0.28120  0.16660  0.70560  1.0000
  H   H22       1.0  0.71880  0.66660  0.79440  1.0000
  H   H23       1.0  0.71880  0.83340  0.29440  1.0000
  H   H24       1.0  0.28120  0.33340  0.20560  1.0000
  C   C25       1.0  0.23900  0.47630  0.80380  1.0000
  C   C26       1.0  0.76100  0.97630  0.69620  1.0000
  C   C27       1.0  0.76100  0.52370  0.19620  1.0000
  C   C28       1.0  0.23900  0.02370  0.30380  1.0000
  H   H25       1.0  0.20830  0.46660  0.86840  1.0000
  H   H26       1.0  0.79170  0.96660  0.63160  1.0000
  H   H27       1.0  0.79170  0.53340  0.13160  1.0000
  H   H28       1.0  0.20830  0.03340  0.36840  1.0000
  C   C29       1.0  0.22900  0.07240  0.74910  1.0000
  C   C30       1.0  0.77100  0.57240  0.75090  1.0000
  C   C31       1.0  0.77100  0.92760  0.25090  1.0000
  C   C32       1.0  0.22900  0.42760  0.24910  1.0000
  H   H29       1.0  0.19450  0.08480  0.81210  1.0000
  H   H30       1.0  0.80550  0.58480  0.68790  1.0000
  H   H31       1.0  0.80550  0.91520  0.18790  1.0000
  H   H32       1.0  0.19450  0.41520  0.31210  1.0000
  C   C33       1.0  0.25500  0.54180  0.77480  1.0000
  C   C34       1.0  0.74500  0.04180  0.72520  1.0000
  C   C35       1.0  0.74500  0.45820  0.22520  1.0000
  C   C36       1.0  0.25500  0.95820  0.27480  1.0000
  C   C37       1.0  0.22800  0.00650  0.72450  1.0000
  C   C38       1.0  0.77200  0.50650  0.77550  1.0000
  C   C39       1.0  0.77200  0.99350  0.27550  1.0000
  C   C40       1.0  0.22800  0.49350  0.22450  1.0000
  C   C41       1.0  0.23500  0.60410  0.83940  1.0000
  C   C42       1.0  0.76500  0.10410  0.66060  1.0000
  C   C43       1.0  0.76500  0.39590  0.16060  1.0000
  C   C44       1.0  0.23500  0.89590  0.33940  1.0000
  C   C45       1.0  0.19000  0.95260  0.79370  1.0000
  C   C46       1.0  0.81000  0.45260  0.70630  1.0000
  C   C47       1.0  0.81000  0.04740  0.20630  1.0000
  C   C48       1.0  0.19000  0.54740  0.29370  1.0000
