data_image0
_chemical_formula_structural       U16O72N12C12H4C4H4C4H4C4H4C12H4C4H4C4H4C4H4C12H4C4H4C4H4C4H4
_chemical_formula_sum              "U16 O72 N12 C72 H48"
_cell_length_a       7.32
_cell_length_b       16.272
_cell_length_c       23.96
_cell_angle_alpha    90
_cell_angle_beta     95.84
_cell_angle_gamma    90

_space_group_name_H-M_alt    "P 1"
_space_group_IT_number       1

loop_
  _space_group_symop_operation_xyz
  'x, y, z'

loop_
  _atom_site_type_symbol
  _atom_site_label
  _atom_site_symmetry_multiplicity
  _atom_site_fract_x
  _atom_site_fract_y
  _atom_site_fract_z
  _atom_site_occupancy
  U   U1        1.0  0.28386  0.68030  0.10223  1.0000
  U   U2        1.0  0.21614  0.18030  0.39777  1.0000
  U   U3        1.0  0.71614  0.31970  0.89777  1.0000
  U   U4        1.0  0.78386  0.81970  0.60223  1.0000
  U   U5        1.0  0.32219  0.78951  0.24345  1.0000
  U   U6        1.0  0.17781  0.28951  0.25655  1.0000
  U   U7        1.0  0.67781  0.21049  0.75655  1.0000
  U   U8        1.0  0.82219  0.71049  0.74345  1.0000
  U   U9        1.0  0.27914  0.51055  0.22196  1.0000
  U   U10       1.0  0.22086  0.01055  0.27804  1.0000
  U   U11       1.0  0.72086  0.48945  0.77804  1.0000
  U   U12       1.0  0.77914  0.98945  0.72196  1.0000
  U   U13       1.0  0.22336  0.43359  0.37662  1.0000
  U   U14       1.0  0.27664  0.93359  0.12338  1.0000
  U   U15       1.0  0.77664  0.56641  0.62338  1.0000
  U   U16       1.0  0.72336  0.06641  0.87662  1.0000
  O   O1        1.0  0.07890  0.77040  0.23760  1.0000
  O   O2        1.0  0.42110  0.27040  0.26240  1.0000
  O   O3        1.0  0.92110  0.22960  0.76240  1.0000
  O   O4        1.0  0.57890  0.72960  0.73760  1.0000
  O   O5        1.0  0.52700  0.67820  0.09170  1.0000
  O   O6        1.0  0.97300  0.17820  0.40830  1.0000
  O   O7        1.0  0.47300  0.32180  0.90830  1.0000
  O   O8        1.0  0.02700  0.82180  0.59170  1.0000
  O   O9        1.0  0.04300  0.67830  0.10910  1.0000
  O   O10       1.0  0.45700  0.17830  0.39090  1.0000
  O   O11       1.0  0.95700  0.32170  0.89090  1.0000
  O   O12       1.0  0.54300  0.82170  0.60910  1.0000
  O   O13       1.0  0.56760  0.80220  0.25300  1.0000
  O   O14       1.0  0.93240  0.30220  0.24700  1.0000
  O   O15       1.0  0.43240  0.19780  0.74700  1.0000
  O   O16       1.0  0.06760  0.69780  0.75300  1.0000
  O   O17       1.0  0.51890  0.48730  0.23570  1.0000
  O   O18       1.0  0.98110  0.98730  0.26430  1.0000
  O   O19       1.0  0.48110  0.51270  0.76430  1.0000
  O   O20       1.0  0.01890  0.01270  0.73570  1.0000
  O   O21       1.0  0.04500  0.53850  0.20830  1.0000
  O   O22       1.0  0.45500  0.03850  0.29170  1.0000
  O   O23       1.0  0.95500  0.46150  0.79170  1.0000
  O   O24       1.0  0.54500  0.96150  0.70830  1.0000
  O   O25       1.0  0.47190  0.42680  0.38590  1.0000
  O   O26       1.0  0.02810  0.92680  0.11410  1.0000
  O   O27       1.0  0.52810  0.57320  0.61410  1.0000
  O   O28       1.0  0.97190  0.07320  0.88590  1.0000
  O   O29       1.0  0.97480  0.44430  0.37330  1.0000
  O   O30       1.0  0.52520  0.94430  0.12670  1.0000
  O   O31       1.0  0.02520  0.55570  0.62670  1.0000
  O   O32       1.0  0.47480  0.05570  0.87330  1.0000
  O   O33       1.0  0.30350  0.53140  0.11910  1.0000
  O   O34       1.0  0.19650  0.03140  0.38090  1.0000
  O   O35       1.0  0.69650  0.46860  0.88090  1.0000
  O   O36       1.0  0.80350  0.96860  0.61910  1.0000
  O   O37       1.0  0.38790  0.40720  0.08850  1.0000
  O   O38       1.0  0.11210  0.90720  0.41150  1.0000
  O   O39       1.0  0.61210  0.59280  0.91150  1.0000
  O   O40       1.0  0.88790  0.09280  0.58850  1.0000
  O   O41       1.0  0.35380  0.69890  0.32160  1.0000
  O   O42       1.0  0.14620  0.19890  0.17840  1.0000
  O   O43       1.0  0.64620  0.30110  0.67840  1.0000
  O   O44       1.0  0.85380  0.80110  0.82160  1.0000
  O   O45       1.0  0.27330  0.56500  0.32310  1.0000
  O   O46       1.0  0.22670  0.06500  0.17690  1.0000
  O   O47       1.0  0.72670  0.43500  0.67690  1.0000
  O   O48       1.0  0.77330  0.93500  0.82310  1.0000
  O   O49       1.0  0.36610  0.65180  0.20090  1.0000
  O   O50       1.0  0.13390  0.15180  0.29910  1.0000
  O   O51       1.0  0.63390  0.34820  0.79910  1.0000
  O   O52       1.0  0.86610  0.84820  0.70090  1.0000
  O   O53       1.0  0.25590  0.26150  0.47880  1.0000
  O   O54       1.0  0.24410  0.76150  0.02120  1.0000
  O   O55       1.0  0.74410  0.73850  0.52120  1.0000
  O   O56       1.0  0.75590  0.23850  0.97880  1.0000
  O   O57       1.0  0.31440  0.80100  0.14420  1.0000
  O   O58       1.0  0.18560  0.30100  0.35580  1.0000
  O   O59       1.0  0.68560  0.19900  0.85580  1.0000
  O   O60       1.0  0.81440  0.69900  0.64420  1.0000
  O   O61       1.0  0.21630  0.38120  0.18220  1.0000
  O   O62       1.0  0.28370  0.88120  0.31780  1.0000
  O   O63       1.0  0.78370  0.61880  0.81780  1.0000
  O   O64       1.0  0.71630  0.11880  0.68220  1.0000
  O   O65       1.0  0.22400  0.39630  0.47390  1.0000
  O   O66       1.0  0.27600  0.89630  0.02610  1.0000
  O   O67       1.0  0.77600  0.60370  0.52610  1.0000
  O   O68       1.0  0.72400  0.10370  0.97390  1.0000
  O   O69       1.0  0.21430  0.41890  0.28580  1.0000
  O   O70       1.0  0.28570  0.91890  0.21420  1.0000
  O   O71       1.0  0.78570  0.58110  0.71420  1.0000
  O   O72       1.0  0.71430  0.08110  0.78580  1.0000
  N   N1        1.0  0.21100  0.58160  0.01520  1.0000
  N   N2        1.0  0.28900  0.08160  0.48480  1.0000
  N   N3        1.0  0.78900  0.41840  0.98480  1.0000
  N   N4        1.0  0.71100  0.91840  0.51520  1.0000
  N   N5        1.0  0.23600  0.57220  0.43180  1.0000
  N   N6        1.0  0.26400  0.07220  0.06820  1.0000
  N   N7        1.0  0.76400  0.42780  0.56820  1.0000
  N   N8        1.0  0.73600  0.92780  0.93180  1.0000
  N   N9        1.0  0.18800  0.33420  0.67790  1.0000
  N   N10       1.0  0.31200  0.83420  0.82210  1.0000
  N   N11       1.0  0.81200  0.66580  0.32210  1.0000
  N   N12       1.0  0.68800  0.16580  0.17790  1.0000
  C   C1        1.0  0.33000  0.47790  0.08060  1.0000
  C   C2        1.0  0.17000  0.97790  0.41940  1.0000
  C   C3        1.0  0.67000  0.52210  0.91940  1.0000
  C   C4        1.0  0.83000  0.02210  0.58060  1.0000
  C   C5        1.0  0.27200  0.50460  0.02190  1.0000
  C   C6        1.0  0.22800  0.00460  0.47810  1.0000
  C   C7        1.0  0.72800  0.49540  0.97810  1.0000
  C   C8        1.0  0.77200  0.99540  0.52190  1.0000
  C   C9        1.0  0.27700  0.45100  0.97610  1.0000
  C   C10       1.0  0.22300  0.95100  0.52390  1.0000
  C   C11       1.0  0.72300  0.54900  0.02390  1.0000
  C   C12       1.0  0.77700  0.04900  0.47610  1.0000
  H   H1        1.0  0.32830  0.39750  0.98120  1.0000
  H   H2        1.0  0.17170  0.89750  0.51880  1.0000
  H   H3        1.0  0.67170  0.60250  0.01880  1.0000
  H   H4        1.0  0.82830  0.10250  0.48120  1.0000
  C   C13       1.0  0.20700  0.47750  0.92380  1.0000
  C   C14       1.0  0.29300  0.97750  0.57620  1.0000
  C   C15       1.0  0.79300  0.52250  0.07620  1.0000
  C   C16       1.0  0.70700  0.02250  0.42380  1.0000
  H   H5        1.0  0.20590  0.44180  0.89230  1.0000
  H   H6        1.0  0.29410  0.94180  0.60770  1.0000
  H   H7        1.0  0.79410  0.55820  0.10770  1.0000
  H   H8        1.0  0.70590  0.05820  0.39230  1.0000
  C   C17       1.0  0.13700  0.55650  0.91720  1.0000
  C   C18       1.0  0.36300  0.05650  0.58280  1.0000
  C   C19       1.0  0.86300  0.44350  0.08280  1.0000
  C   C20       1.0  0.63700  0.94350  0.41720  1.0000
  H   H9        1.0  0.08880  0.57600  0.88130  1.0000
  H   H10       1.0  0.41120  0.07600  0.61870  1.0000
  H   H11       1.0  0.91120  0.42400  0.11870  1.0000
  H   H12       1.0  0.58880  0.92400  0.38130  1.0000
  C   C21       1.0  0.14100  0.60580  0.96370  1.0000
  C   C22       1.0  0.35900  0.10580  0.53630  1.0000
  C   C23       1.0  0.85900  0.39420  0.03630  1.0000
  C   C24       1.0  0.64100  0.89420  0.46370  1.0000
  H   H13       1.0  0.09060  0.65960  0.95940  1.0000
  H   H14       1.0  0.40940  0.15960  0.54060  1.0000
  H   H15       1.0  0.90940  0.34040  0.04060  1.0000
  H   H16       1.0  0.59060  0.84040  0.45940  1.0000
  C   C25       1.0  0.30800  0.63690  0.34640  1.0000
  C   C26       1.0  0.19200  0.13690  0.15360  1.0000
  C   C27       1.0  0.69200  0.36310  0.65360  1.0000
  C   C28       1.0  0.80800  0.86310  0.84640  1.0000
  C   C29       1.0  0.28800  0.64380  0.40700  1.0000
  C   C30       1.0  0.21200  0.14380  0.09300  1.0000
  C   C31       1.0  0.71200  0.35620  0.59300  1.0000
  C   C32       1.0  0.78800  0.85620  0.90700  1.0000
  C   C33       1.0  0.31100  0.71590  0.43470  1.0000
  C   C34       1.0  0.18900  0.21590  0.06530  1.0000
  C   C35       1.0  0.68900  0.28410  0.56530  1.0000
  C   C36       1.0  0.81100  0.78410  0.93470  1.0000
  H   H17       1.0  0.34760  0.76330  0.41540  1.0000
  H   H18       1.0  0.15240  0.26330  0.08460  1.0000
  H   H19       1.0  0.65240  0.23670  0.58460  1.0000
  H   H20       1.0  0.84760  0.73670  0.91540  1.0000
  C   C37       1.0  0.28300  0.72170  0.49040  1.0000
  C   C38       1.0  0.21700  0.22170  0.00960  1.0000
  C   C39       1.0  0.71700  0.27830  0.50960  1.0000
  C   C40       1.0  0.78300  0.77830  0.99040  1.0000
  H   H21       1.0  0.30260  0.77190  0.51030  1.0000
  H   H22       1.0  0.19740  0.27190  0.98970  1.0000
  H   H23       1.0  0.69740  0.22810  0.48970  1.0000
  H   H24       1.0  0.80260  0.72810  0.01030  1.0000
  C   C41       1.0  0.22500  0.65170  0.51660  1.0000
  C   C42       1.0  0.27500  0.15170  0.98340  1.0000
  C   C43       1.0  0.77500  0.34830  0.48340  1.0000
  C   C44       1.0  0.72500  0.84830  0.01660  1.0000
  H   H25       1.0  0.19370  0.65370  0.55420  1.0000
  H   H26       1.0  0.30630  0.15370  0.94580  1.0000
  H   H27       1.0  0.80630  0.34630  0.44580  1.0000
  H   H28       1.0  0.69370  0.84630  0.05420  1.0000
  C   C45       1.0  0.21300  0.57980  0.48710  1.0000
  C   C46       1.0  0.28700  0.07980  0.01290  1.0000
  C   C47       1.0  0.78700  0.42020  0.51290  1.0000
  C   C48       1.0  0.71300  0.92020  0.98710  1.0000
  H   H29       1.0  0.18610  0.53130  0.50680  1.0000
  H   H30       1.0  0.31390  0.03130  0.99320  1.0000
  H   H31       1.0  0.81390  0.46870  0.49320  1.0000
  H   H32       1.0  0.68610  0.96870  0.00680  1.0000
  C   C49       1.0  0.23200  0.32980  0.50150  1.0000
  C   C50       1.0  0.26800  0.82980  0.99850  1.0000
  C   C51       1.0  0.76800  0.67020  0.49850  1.0000
  C   C52       1.0  0.73200  0.17020  0.00150  1.0000
  C   C53       1.0  0.21800  0.33340  0.56140  1.0000
  C   C54       1.0  0.28200  0.83340  0.93860  1.0000
  C   C55       1.0  0.78200  0.66660  0.43860  1.0000
  C   C56       1.0  0.71800  0.16660  0.06140  1.0000
  C   C57       1.0  0.14800  0.26330  0.58900  1.0000
  C   C58       1.0  0.35200  0.76330  0.91100  1.0000
  C   C59       1.0  0.85200  0.73670  0.41100  1.0000
  C   C60       1.0  0.64800  0.23670  0.08900  1.0000
  H   H33       1.0  0.11020  0.21490  0.56890  1.0000
  H   H34       1.0  0.38980  0.71490  0.93110  1.0000
  H   H35       1.0  0.88980  0.78510  0.43110  1.0000
  H   H36       1.0  0.61020  0.28510  0.06890  1.0000
  C   C61       1.0  0.14000  0.26960  0.64660  1.0000
  C   C62       1.0  0.36000  0.76960  0.85340  1.0000
  C   C63       1.0  0.86000  0.73040  0.35340  1.0000
  C   C64       1.0  0.64000  0.23040  0.14660  1.0000
  H   H37       1.0  0.09600  0.22310  0.66510  1.0000
  H   H38       1.0  0.40400  0.72310  0.83490  1.0000
  H   H39       1.0  0.90400  0.77690  0.33490  1.0000
  H   H40       1.0  0.59600  0.27690  0.16510  1.0000
  C   C65       1.0  0.25000  0.39940  0.65170  1.0000
  C   C66       1.0  0.25000  0.89940  0.84830  1.0000
  C   C67       1.0  0.75000  0.60060  0.34830  1.0000
  C   C68       1.0  0.75000  0.10060  0.15170  1.0000
  H   H41       1.0  0.28460  0.44680  0.67350  1.0000
  H   H42       1.0  0.21540  0.94680  0.82650  1.0000
  H   H43       1.0  0.71540  0.55320  0.32650  1.0000
  H   H44       1.0  0.78460  0.05320  0.17350  1.0000
  C   C69       1.0  0.26600  0.40210  0.59440  1.0000
  C   C70       1.0  0.23400  0.90210  0.90560  1.0000
  C   C71       1.0  0.73400  0.59790  0.40560  1.0000
  C   C72       1.0  0.76600  0.09790  0.09440  1.0000
  H   H45       1.0  0.31040  0.45030  0.57790  1.0000
  H   H46       1.0  0.18960  0.95030  0.92210  1.0000
  H   H47       1.0  0.68960  0.54970  0.42210  1.0000
  H   H48       1.0  0.81040  0.04970  0.07790  1.0000
