data_image0
_chemical_formula_structural       U8O32N4C12H4C4H4C4H4C4H4
_chemical_formula_sum              "U8 O32 N4 C24 H16"
_cell_length_a       6.791
_cell_length_b       6.955
_cell_length_c       24.201
_cell_angle_alpha    90
_cell_angle_beta     90
_cell_angle_gamma    90

_space_group_name_H-M_alt    "P 1"
_space_group_IT_number       1

loop_
  _space_group_symop_operation_xyz
  'x, y, z'

loop_
  _atom_site_type_symbol
  _atom_site_label
  _atom_site_symmetry_multiplicity
  _atom_site_fract_x
  _atom_site_fract_y
  _atom_site_fract_z
  _atom_site_occupancy
  U   U1        1.0  0.61429  0.25000  0.27925  1.0000
  U   U2        1.0  0.88571  0.75000  0.77925  1.0000
  U   U3        1.0  0.11429  0.25000  0.22075  1.0000
  U   U4        1.0  0.38571  0.75000  0.72075  1.0000
  U   U5        1.0  0.13619  0.25000  0.37515  1.0000
  U   U6        1.0  0.36381  0.75000  0.87515  1.0000
  U   U7        1.0  0.63619  0.25000  0.12485  1.0000
  U   U8        1.0  0.86381  0.75000  0.62485  1.0000
  O   O1        1.0  0.61400  0.51330  0.28240  1.0000
  O   O2        1.0  0.88600  0.48670  0.78240  1.0000
  O   O3        1.0  0.11400  0.98670  0.21760  1.0000
  O   O4        1.0  0.38600  0.01330  0.71760  1.0000
  O   O5        1.0  0.38600  0.48670  0.71760  1.0000
  O   O6        1.0  0.11400  0.51330  0.21760  1.0000
  O   O7        1.0  0.88600  0.01330  0.78240  1.0000
  O   O8        1.0  0.61400  0.98670  0.28240  1.0000
  O   O9        1.0  0.13470  0.99160  0.38060  1.0000
  O   O10       1.0  0.36530  0.00840  0.88060  1.0000
  O   O11       1.0  0.63470  0.50840  0.11940  1.0000
  O   O12       1.0  0.86530  0.49160  0.61940  1.0000
  O   O13       1.0  0.86530  0.00840  0.61940  1.0000
  O   O14       1.0  0.63470  0.99160  0.11940  1.0000
  O   O15       1.0  0.36530  0.49160  0.88060  1.0000
  O   O16       1.0  0.13470  0.50840  0.38060  1.0000
  O   O17       1.0  0.29830  0.25000  0.29840  1.0000
  O   O18       1.0  0.20170  0.75000  0.79840  1.0000
  O   O19       1.0  0.79830  0.25000  0.20160  1.0000
  O   O20       1.0  0.70170  0.75000  0.70160  1.0000
  O   O21       1.0  0.82050  0.25000  0.42910  1.0000
  O   O22       1.0  0.67950  0.75000  0.92910  1.0000
  O   O23       1.0  0.32050  0.25000  0.07090  1.0000
  O   O24       1.0  0.17950  0.75000  0.57090  1.0000
  O   O25       1.0  0.53580  0.25000  0.38160  1.0000
  O   O26       1.0  0.96420  0.75000  0.88160  1.0000
  O   O27       1.0  0.03580  0.25000  0.11840  1.0000
  O   O28       1.0  0.46420  0.75000  0.61840  1.0000
  O   O29       1.0  0.92470  0.25000  0.30670  1.0000
  O   O30       1.0  0.57530  0.75000  0.80670  1.0000
  O   O31       1.0  0.42470  0.25000  0.19330  1.0000
  O   O32       1.0  0.07530  0.75000  0.69330  1.0000
  N   N1        1.0  0.31970  0.25000  0.47090  1.0000
  N   N2        1.0  0.18030  0.75000  0.97090  1.0000
  N   N3        1.0  0.81970  0.25000  0.02910  1.0000
  N   N4        1.0  0.68030  0.75000  0.52910  1.0000
  C   C1        1.0  0.64080  0.25000  0.42310  1.0000
  C   C2        1.0  0.85920  0.75000  0.92310  1.0000
  C   C3        1.0  0.14080  0.25000  0.07690  1.0000
  C   C4        1.0  0.35920  0.75000  0.57690  1.0000
  C   C5        1.0  0.51520  0.25000  0.47830  1.0000
  C   C6        1.0  0.98480  0.75000  0.97830  1.0000
  C   C7        1.0  0.01520  0.25000  0.02170  1.0000
  C   C8        1.0  0.48480  0.75000  0.52170  1.0000
  C   C9        1.0  0.60750  0.25000  0.53030  1.0000
  C   C10       1.0  0.89250  0.75000  0.03030  1.0000
  C   C11       1.0  0.10750  0.25000  0.96970  1.0000
  C   C12       1.0  0.39250  0.75000  0.46970  1.0000
  H   H1        1.0  0.74690  0.25000  0.53380  1.0000
  H   H2        1.0  0.75310  0.75000  0.03380  1.0000
  H   H3        1.0  0.24690  0.25000  0.96620  1.0000
  H   H4        1.0  0.25310  0.75000  0.46620  1.0000
  C   C13       1.0  0.48470  0.25000  0.57670  1.0000
  C   C14       1.0  0.01530  0.75000  0.07670  1.0000
  C   C15       1.0  0.98470  0.25000  0.92330  1.0000
  C   C16       1.0  0.51530  0.75000  0.42330  1.0000
  H   H5        1.0  0.53980  0.25000  0.61280  1.0000
  H   H6        1.0  0.96020  0.75000  0.11280  1.0000
  H   H7        1.0  0.03980  0.25000  0.88720  1.0000
  H   H8        1.0  0.46020  0.75000  0.38720  1.0000
  C   C17       1.0  0.28240  0.25000  0.56970  1.0000
  C   C18       1.0  0.21760  0.75000  0.06970  1.0000
  C   C19       1.0  0.78240  0.25000  0.93030  1.0000
  C   C20       1.0  0.71760  0.75000  0.43030  1.0000
  H   H9        1.0  0.19700  0.25000  0.60080  1.0000
  H   H10       1.0  0.30300  0.75000  0.10080  1.0000
  H   H11       1.0  0.69700  0.25000  0.89920  1.0000
  H   H12       1.0  0.80300  0.75000  0.39920  1.0000
  C   C21       1.0  0.20510  0.25000  0.51550  1.0000
  C   C22       1.0  0.29490  0.75000  0.01550  1.0000
  C   C23       1.0  0.70510  0.25000  0.98450  1.0000
  C   C24       1.0  0.79490  0.75000  0.48450  1.0000
  H   H13       1.0  0.06630  0.25000  0.51070  1.0000
  H   H14       1.0  0.43370  0.75000  0.01070  1.0000
  H   H15       1.0  0.56630  0.25000  0.98930  1.0000
  H   H16       1.0  0.93370  0.75000  0.48930  1.0000
