data_image0
_chemical_formula_structural       In2K4S12O12N12C16H8C4H8C4H8C4H8C4H8C4H8
_chemical_formula_sum              "In2 K4 S12 O12 N12 C36 H48"
_cell_length_a       10.8889
_cell_length_b       14.9077
_cell_length_c       15.8645
_cell_angle_alpha    90
_cell_angle_beta     101.646
_cell_angle_gamma    90

_space_group_name_H-M_alt    "P 1"
_space_group_IT_number       1

loop_
  _space_group_symop_operation_xyz
  'x, y, z'

loop_
  _atom_site_type_symbol
  _atom_site_label
  _atom_site_symmetry_multiplicity
  _atom_site_fract_x
  _atom_site_fract_y
  _atom_site_fract_z
  _atom_site_occupancy
  In  In1       1.0  0.63211  0.25000  0.75052  1.0000
  In  In2       1.0  0.36789  0.75000  0.24948  1.0000
  K   K1        1.0  0.50474  0.25000  0.11864  1.0000
  K   K2        1.0  0.49526  0.75000  0.88136  1.0000
  K   K3        1.0  0.11878  0.25000  0.74837  1.0000
  K   K4        1.0  0.88122  0.75000  0.25163  1.0000
  S   S1        1.0  0.92090  0.25000  0.56063  1.0000
  S   S2        1.0  0.07910  0.75000  0.43937  1.0000
  S   S3        1.0  0.00910  0.41527  0.84952  1.0000
  S   S4        1.0  0.99090  0.91527  0.15048  1.0000
  S   S5        1.0  0.99090  0.58473  0.15048  1.0000
  S   S6        1.0  0.00910  0.08473  0.84952  1.0000
  S   S7        1.0  0.24499  0.10264  0.63411  1.0000
  S   S8        1.0  0.75501  0.60264  0.36589  1.0000
  S   S9        1.0  0.75501  0.89736  0.36589  1.0000
  S   S10       1.0  0.24499  0.39736  0.63411  1.0000
  S   S11       1.0  0.32841  0.25000  0.92782  1.0000
  S   S12       1.0  0.67159  0.75000  0.07218  1.0000
  O   O1        1.0  0.25640  0.25000  0.13620  1.0000
  O   O2        1.0  0.74360  0.75000  0.86380  1.0000
  O   O3        1.0  0.38810  0.40981  0.14932  1.0000
  O   O4        1.0  0.61190  0.90981  0.85068  1.0000
  O   O5        1.0  0.61190  0.59019  0.85068  1.0000
  O   O6        1.0  0.38810  0.09019  0.14932  1.0000
  O   O7        1.0  0.61840  0.41070  0.09447  1.0000
  O   O8        1.0  0.38160  0.91070  0.90553  1.0000
  O   O9        1.0  0.38160  0.58930  0.90553  1.0000
  O   O10       1.0  0.61840  0.08930  0.09447  1.0000
  O   O11       1.0  0.75770  0.25000  0.09800  1.0000
  O   O12       1.0  0.24230  0.75000  0.90200  1.0000
  N   N1        1.0  0.71790  0.25000  0.63840  1.0000
  N   N2        1.0  0.28210  0.75000  0.36160  1.0000
  N   N3        1.0  0.76900  0.35136  0.80661  1.0000
  N   N4        1.0  0.23100  0.85136  0.19339  1.0000
  N   N5        1.0  0.23100  0.64864  0.19339  1.0000
  N   N6        1.0  0.76900  0.14864  0.80661  1.0000
  N   N7        1.0  0.49210  0.14971  0.69296  1.0000
  N   N8        1.0  0.50790  0.64971  0.30704  1.0000
  N   N9        1.0  0.50790  0.85029  0.30704  1.0000
  N   N10       1.0  0.49210  0.35029  0.69296  1.0000
  N   N11       1.0  0.54470  0.25000  0.86290  1.0000
  N   N12       1.0  0.45530  0.75000  0.13710  1.0000
  C   C1        1.0  0.80440  0.25000  0.60800  1.0000
  C   C2        1.0  0.19560  0.75000  0.39200  1.0000
  C   C3        1.0  0.86930  0.37627  0.82500  1.0000
  C   C4        1.0  0.13070  0.87627  0.17500  1.0000
  C   C5        1.0  0.13070  0.62373  0.17500  1.0000
  C   C6        1.0  0.86930  0.12373  0.82500  1.0000
  C   C7        1.0  0.38940  0.13079  0.66881  1.0000
  C   C8        1.0  0.61060  0.63079  0.33119  1.0000
  C   C9        1.0  0.61060  0.86921  0.33119  1.0000
  C   C10       1.0  0.38940  0.36921  0.66881  1.0000
  C   C11       1.0  0.45400  0.25000  0.88860  1.0000
  C   C12       1.0  0.54600  0.75000  0.11140  1.0000
  C   C13       1.0  0.21380  0.32890  0.16950  1.0000
  C   C14       1.0  0.78620  0.82890  0.83050  1.0000
  C   C15       1.0  0.78620  0.67110  0.83050  1.0000
  C   C16       1.0  0.21380  0.17110  0.16950  1.0000
  H   H1        1.0  0.24800  0.33320  0.23070  1.0000
  H   H2        1.0  0.75200  0.83320  0.76930  1.0000
  H   H3        1.0  0.75200  0.66680  0.76930  1.0000
  H   H4        1.0  0.24800  0.16680  0.23070  1.0000
  H   H5        1.0  0.12310  0.32830  0.16080  1.0000
  H   H6        1.0  0.87690  0.82830  0.83920  1.0000
  H   H7        1.0  0.87690  0.67170  0.83920  1.0000
  H   H8        1.0  0.12310  0.17170  0.16080  1.0000
  C   C17       1.0  0.25520  0.40580  0.12450  1.0000
  C   C18       1.0  0.74480  0.90580  0.87550  1.0000
  C   C19       1.0  0.74480  0.59420  0.87550  1.0000
  C   C20       1.0  0.25520  0.09420  0.12450  1.0000
  H   H9        1.0  0.23030  0.39800  0.06270  1.0000
  H   H10       1.0  0.76970  0.89800  0.93730  1.0000
  H   H11       1.0  0.76970  0.60200  0.93730  1.0000
  H   H12       1.0  0.23030  0.10200  0.06270  1.0000
  H   H13       1.0  0.21800  0.46080  0.14040  1.0000
  H   H14       1.0  0.78200  0.96080  0.85960  1.0000
  H   H15       1.0  0.78200  0.53920  0.85960  1.0000
  H   H16       1.0  0.21800  0.03920  0.14040  1.0000
  C   C21       1.0  0.43410  0.48510  0.11330  1.0000
  C   C22       1.0  0.56590  0.98510  0.88670  1.0000
  C   C23       1.0  0.56590  0.51490  0.88670  1.0000
  C   C24       1.0  0.43410  0.01490  0.11330  1.0000
  H   H17       1.0  0.40140  0.53930  0.13450  1.0000
  H   H18       1.0  0.59860  0.03930  0.86550  1.0000
  H   H19       1.0  0.59860  0.46070  0.86550  1.0000
  H   H20       1.0  0.40140  0.96070  0.13450  1.0000
  H   H21       1.0  0.40730  0.48380  0.05110  1.0000
  H   H22       1.0  0.59270  0.98380  0.94890  1.0000
  H   H23       1.0  0.59270  0.51620  0.94890  1.0000
  H   H24       1.0  0.40730  0.01620  0.05110  1.0000
  C   C25       1.0  0.57070  0.48490  0.13660  1.0000
  C   C26       1.0  0.42930  0.98490  0.86340  1.0000
  C   C27       1.0  0.42930  0.51510  0.86340  1.0000
  C   C28       1.0  0.57070  0.01510  0.13660  1.0000
  H   H25       1.0  0.60340  0.54090  0.11910  1.0000
  H   H26       1.0  0.39660  0.04090  0.88090  1.0000
  H   H27       1.0  0.39660  0.45910  0.88090  1.0000
  H   H28       1.0  0.60340  0.95910  0.11910  1.0000
  H   H29       1.0  0.59740  0.47920  0.19850  1.0000
  H   H30       1.0  0.40260  0.97920  0.80150  1.0000
  H   H31       1.0  0.40260  0.52080  0.80150  1.0000
  H   H32       1.0  0.59740  0.02080  0.19850  1.0000
  C   C29       1.0  0.74670  0.41050  0.10370  1.0000
  C   C30       1.0  0.25330  0.91050  0.89630  1.0000
  C   C31       1.0  0.25330  0.58950  0.89630  1.0000
  C   C32       1.0  0.74670  0.08950  0.10370  1.0000
  H   H33       1.0  0.78580  0.40750  0.16430  1.0000
  H   H34       1.0  0.21420  0.90750  0.83570  1.0000
  H   H35       1.0  0.21420  0.59250  0.83570  1.0000
  H   H36       1.0  0.78580  0.09250  0.16430  1.0000
  H   H37       1.0  0.77390  0.46530  0.08010  1.0000
  H   H38       1.0  0.22610  0.96530  0.91990  1.0000
  H   H39       1.0  0.22610  0.53470  0.91990  1.0000
  H   H40       1.0  0.77390  0.03470  0.08010  1.0000
  C   C33       1.0  0.78590  0.33000  0.05680  1.0000
  C   C34       1.0  0.21410  0.83000  0.94320  1.0000
  C   C35       1.0  0.21410  0.67000  0.94320  1.0000
  C   C36       1.0  0.78590  0.17000  0.05680  1.0000
  H   H41       1.0  0.74150  0.33030  0.99730  1.0000
  H   H42       1.0  0.25850  0.83030  0.00270  1.0000
  H   H43       1.0  0.25850  0.66970  0.00270  1.0000
  H   H44       1.0  0.74150  0.16970  0.99730  1.0000
  H   H45       1.0  0.87520  0.33280  0.05760  1.0000
  H   H46       1.0  0.12480  0.83280  0.94240  1.0000
  H   H47       1.0  0.12480  0.66720  0.94240  1.0000
  H   H48       1.0  0.87520  0.16720  0.05760  1.0000
