data_image0
_chemical_formula_structural       Zn2O12C6H6
_chemical_formula_sum              "Zn2 O12 C6 H6"
_cell_length_a       7.1937
_cell_length_b       7.1937
_cell_length_c       8.1788
_cell_angle_alpha    90
_cell_angle_beta     90
_cell_angle_gamma    120

_space_group_name_H-M_alt    "P 1"
_space_group_IT_number       1

loop_
  _space_group_symop_operation_xyz
  'x, y, z'

loop_
  _atom_site_type_symbol
  _atom_site_label
  _atom_site_symmetry_multiplicity
  _atom_site_fract_x
  _atom_site_fract_y
  _atom_site_fract_z
  _atom_site_occupancy
  Zn  Zn1       1.0  0.33340  0.66670  0.25000  1.0000
  Zn  Zn2       1.0  0.66670  0.33340  0.75000  1.0000
  O   O1        1.0  0.10900  0.69560  0.39350  1.0000
  O   O2        1.0  0.41340  0.10900  0.89350  1.0000
  O   O3        1.0  0.30440  0.41340  0.39350  1.0000
  O   O4        1.0  0.89100  0.30440  0.89350  1.0000
  O   O5        1.0  0.58660  0.89100  0.39350  1.0000
  O   O6        1.0  0.69560  0.58660  0.89350  1.0000
  O   O7        1.0  0.41340  0.30440  0.60650  1.0000
  O   O8        1.0  0.89100  0.58660  0.60650  1.0000
  O   O9        1.0  0.69560  0.10900  0.60650  1.0000
  O   O10       1.0  0.30440  0.89100  0.10650  1.0000
  O   O11       1.0  0.58660  0.69560  0.10650  1.0000
  O   O12       1.0  0.10900  0.41340  0.10650  1.0000
  C   C1        1.0  0.00000  0.56350  0.50000  1.0000
  C   C2        1.0  0.43650  0.00000  0.00000  1.0000
  C   C3        1.0  0.43650  0.43650  0.50000  1.0000
  C   C4        1.0  0.00000  0.43650  0.00000  1.0000
  C   C5        1.0  0.56350  0.00000  0.50000  1.0000
  C   C6        1.0  0.56350  0.56350  0.00000  1.0000
  H   H1        1.0  0.00000  0.43460  0.50000  1.0000
  H   H2        1.0  0.56540  0.00000  0.00000  1.0000
  H   H3        1.0  0.56540  0.56540  0.50000  1.0000
  H   H4        1.0  1.00000  0.56540  0.00000  1.0000
  H   H5        1.0  0.43460  0.00000  0.50000  1.0000
  H   H6        1.0  0.43460  0.43460  0.00000  1.0000
