data_image0
_chemical_formula_structural       Ca8O64N16C8H8C4H8C4H8C4H8C4H8C8H8C12H8C8H8C4H8C4H8C4H8C12H8C4
_chemical_formula_sum              "Ca8 O64 N16 C80 H96"
_cell_length_a       8.8246
_cell_length_b       20.721
_cell_length_c       25.288
_cell_angle_alpha    90
_cell_angle_beta     90
_cell_angle_gamma    90

_space_group_name_H-M_alt    "P 1"
_space_group_IT_number       1

loop_
  _space_group_symop_operation_xyz
  'x, y, z'

loop_
  _atom_site_type_symbol
  _atom_site_label
  _atom_site_symmetry_multiplicity
  _atom_site_fract_x
  _atom_site_fract_y
  _atom_site_fract_z
  _atom_site_occupancy
  Ca  Ca1       1.0  0.72362  0.37646  0.00439  1.0000
  Ca  Ca2       1.0  0.27638  0.62354  0.50439  1.0000
  Ca  Ca3       1.0  0.22362  0.12354  0.00439  1.0000
  Ca  Ca4       1.0  0.77638  0.87646  0.50439  1.0000
  Ca  Ca5       1.0  0.21900  0.62526  0.99356  1.0000
  Ca  Ca6       1.0  0.78100  0.37474  0.49356  1.0000
  Ca  Ca7       1.0  0.71900  0.87474  0.99356  1.0000
  Ca  Ca8       1.0  0.28100  0.12526  0.49356  1.0000
  O   O1        1.0  0.75910  0.35389  0.09664  1.0000
  O   O2        1.0  0.24090  0.64611  0.59664  1.0000
  O   O3        1.0  0.25910  0.14611  0.09664  1.0000
  O   O4        1.0  0.74090  0.85389  0.59664  1.0000
  O   O5        1.0  0.67890  0.35254  0.18013  1.0000
  O   O6        1.0  0.32110  0.64746  0.68013  1.0000
  O   O7        1.0  0.17890  0.14746  0.18013  1.0000
  O   O8        1.0  0.82110  0.85254  0.68013  1.0000
  O   O9        1.0  0.75470  0.39896  0.91109  1.0000
  O   O10       1.0  0.24530  0.60104  0.41109  1.0000
  O   O11       1.0  0.25470  0.10104  0.91109  1.0000
  O   O12       1.0  0.74530  0.89896  0.41109  1.0000
  O   O13       1.0  0.67280  0.39047  0.82808  1.0000
  O   O14       1.0  0.32720  0.60953  0.32808  1.0000
  O   O15       1.0  0.17280  0.10953  0.82808  1.0000
  O   O16       1.0  0.82720  0.89047  0.32808  1.0000
  O   O17       1.0  0.61100  0.47944  0.03080  1.0000
  O   O18       1.0  0.38900  0.52056  0.53080  1.0000
  O   O19       1.0  0.11100  0.02056  0.03080  1.0000
  O   O20       1.0  0.88900  0.97944  0.53080  1.0000
  O   O21       1.0  0.61170  0.27433  0.97913  1.0000
  O   O22       1.0  0.38830  0.72567  0.47913  1.0000
  O   O23       1.0  0.11170  0.22567  0.97913  1.0000
  O   O24       1.0  0.88830  0.77433  0.47913  1.0000
  O   O25       1.0  0.43970  0.19619  0.98782  1.0000
  O   O26       1.0  0.56030  0.80381  0.48782  1.0000
  O   O27       1.0  0.93970  0.30381  0.98782  1.0000
  O   O28       1.0  0.06030  0.69619  0.48782  1.0000
  O   O29       1.0  0.94410  0.44537  0.01882  1.0000
  O   O30       1.0  0.05590  0.55463  0.51882  1.0000
  O   O31       1.0  0.44410  0.05463  0.01882  1.0000
  O   O32       1.0  0.55590  0.94537  0.51882  1.0000
  O   O33       1.0  0.11420  0.52443  0.02355  1.0000
  O   O34       1.0  0.88580  0.47557  0.52355  1.0000
  O   O35       1.0  0.61420  0.97557  0.02355  1.0000
  O   O36       1.0  0.38580  0.02443  0.52355  1.0000
  O   O37       1.0  0.25400  0.59510  0.90166  1.0000
  O   O38       1.0  0.74600  0.40490  0.40166  1.0000
  O   O39       1.0  0.75400  0.90490  0.90166  1.0000
  O   O40       1.0  0.24600  0.09510  0.40166  1.0000
  O   O41       1.0  0.17330  0.58351  0.81878  1.0000
  O   O42       1.0  0.82670  0.41649  0.31878  1.0000
  O   O43       1.0  0.67330  0.91649  0.81878  1.0000
  O   O44       1.0  0.32670  0.08351  0.31878  1.0000
  O   O45       1.0  0.24410  0.65487  0.08518  1.0000
  O   O46       1.0  0.75590  0.34513  0.58518  1.0000
  O   O47       1.0  0.74410  0.84513  0.08518  1.0000
  O   O48       1.0  0.25590  0.15487  0.58518  1.0000
  O   O49       1.0  0.15000  0.68405  0.16346  1.0000
  O   O50       1.0  0.85000  0.31595  0.66346  1.0000
  O   O51       1.0  0.65000  0.81595  0.16346  1.0000
  O   O52       1.0  0.35000  0.18405  0.66346  1.0000
  O   O53       1.0  0.10310  0.72542  0.96385  1.0000
  O   O54       1.0  0.89690  0.27458  0.46385  1.0000
  O   O55       1.0  0.60310  0.77458  0.96385  1.0000
  O   O56       1.0  0.39690  0.22542  0.46385  1.0000
  O   O57       1.0  0.93540  0.80529  0.97145  1.0000
  O   O58       1.0  0.06460  0.19471  0.47145  1.0000
  O   O59       1.0  0.43540  0.69471  0.97145  1.0000
  O   O60       1.0  0.56460  0.30529  0.47145  1.0000
  O   O61       1.0  0.44290  0.55869  0.01877  1.0000
  O   O62       1.0  0.55710  0.44131  0.51877  1.0000
  O   O63       1.0  0.94290  0.94131  0.01877  1.0000
  O   O64       1.0  0.05710  0.05869  0.51877  1.0000
  N   N1        1.0  0.46940  0.34628  0.05796  1.0000
  N   N2        1.0  0.53060  0.65372  0.55796  1.0000
  N   N3        1.0  0.96940  0.15372  0.05796  1.0000
  N   N4        1.0  0.03060  0.84628  0.55796  1.0000
  N   N5        1.0  0.47080  0.40661  0.95108  1.0000
  N   N6        1.0  0.52920  0.59339  0.45108  1.0000
  N   N7        1.0  0.97080  0.09339  0.95108  1.0000
  N   N8        1.0  0.02920  0.90661  0.45108  1.0000
  N   N9        1.0  0.96800  0.58948  0.94043  1.0000
  N   N10       1.0  0.03200  0.41052  0.44043  1.0000
  N   N11       1.0  0.46800  0.91052  0.94043  1.0000
  N   N12       1.0  0.53200  0.08948  0.44043  1.0000
  N   N13       1.0  0.95830  0.65588  0.04376  1.0000
  N   N14       1.0  0.04170  0.34412  0.54376  1.0000
  N   N15       1.0  0.45830  0.84412  0.04376  1.0000
  N   N16       1.0  0.54170  0.15588  0.54376  1.0000
  C   C1        1.0  0.65670  0.35616  0.13075  1.0000
  C   C2        1.0  0.34330  0.64384  0.63075  1.0000
  C   C3        1.0  0.15670  0.14384  0.13075  1.0000
  C   C4        1.0  0.84330  0.85616  0.63075  1.0000
  C   C5        1.0  0.49360  0.36625  0.11323  1.0000
  C   C6        1.0  0.50640  0.63375  0.61323  1.0000
  C   C7        1.0  0.99360  0.13375  0.11323  1.0000
  C   C8        1.0  0.00640  0.86625  0.61323  1.0000
  H   H1        1.0  0.42550  0.34110  0.13650  1.0000
  H   H2        1.0  0.57450  0.65890  0.63650  1.0000
  H   H3        1.0  0.92550  0.15890  0.13650  1.0000
  H   H4        1.0  0.07450  0.84110  0.63650  1.0000
  H   H5        1.0  0.46700  0.41240  0.11700  1.0000
  H   H6        1.0  0.53300  0.58760  0.61700  1.0000
  H   H7        1.0  0.96700  0.08760  0.11700  1.0000
  H   H8        1.0  0.03300  0.91240  0.61700  1.0000
  C   C9        1.0  0.45420  0.27561  0.05583  1.0000
  C   C10       1.0  0.54580  0.72439  0.55583  1.0000
  C   C11       1.0  0.95420  0.22439  0.05583  1.0000
  C   C12       1.0  0.04580  0.77561  0.55583  1.0000
  H   H9        1.0  0.34700  0.26400  0.06230  1.0000
  H   H10       1.0  0.65300  0.73600  0.56230  1.0000
  H   H11       1.0  0.84700  0.23600  0.06230  1.0000
  H   H12       1.0  0.15300  0.76400  0.56230  1.0000
  H   H13       1.0  0.51560  0.25640  0.08460  1.0000
  H   H14       1.0  0.48440  0.74360  0.58460  1.0000
  H   H15       1.0  0.01560  0.24360  0.08460  1.0000
  H   H16       1.0  0.98440  0.75640  0.58460  1.0000
  C   C13       1.0  0.33710  0.37886  0.03489  1.0000
  C   C14       1.0  0.66290  0.62114  0.53489  1.0000
  C   C15       1.0  0.83710  0.12114  0.03489  1.0000
  C   C16       1.0  0.16290  0.87886  0.53489  1.0000
  H   H17       1.0  0.33730  0.42470  0.04600  1.0000
  H   H18       1.0  0.66270  0.57530  0.54600  1.0000
  H   H19       1.0  0.83730  0.07530  0.04600  1.0000
  H   H20       1.0  0.16270  0.92470  0.54600  1.0000
  H   H21       1.0  0.24370  0.35860  0.04880  1.0000
  H   H22       1.0  0.75630  0.64140  0.54880  1.0000
  H   H23       1.0  0.74370  0.14140  0.04880  1.0000
  H   H24       1.0  0.25630  0.85860  0.54880  1.0000
  C   C17       1.0  0.33480  0.37571  0.97513  1.0000
  C   C18       1.0  0.66520  0.62429  0.47513  1.0000
  C   C19       1.0  0.83480  0.12429  0.97513  1.0000
  C   C20       1.0  0.16520  0.87571  0.47513  1.0000
  H   H25       1.0  0.33010  0.33000  0.96390  1.0000
  H   H26       1.0  0.66990  0.67000  0.46390  1.0000
  H   H27       1.0  0.83010  0.17000  0.96390  1.0000
  H   H28       1.0  0.16990  0.83000  0.46390  1.0000
  H   H29       1.0  0.24250  0.39760  0.96190  1.0000
  H   H30       1.0  0.75750  0.60240  0.46190  1.0000
  H   H31       1.0  0.74250  0.10240  0.96190  1.0000
  H   H32       1.0  0.25750  0.89760  0.46190  1.0000
  C   C21       1.0  0.48980  0.38567  0.89688  1.0000
  C   C22       1.0  0.51020  0.61433  0.39688  1.0000
  C   C23       1.0  0.98980  0.11433  0.89688  1.0000
  C   C24       1.0  0.01020  0.88567  0.39688  1.0000
  H   H33       1.0  0.42150  0.41110  0.87390  1.0000
  H   H34       1.0  0.57850  0.58890  0.37390  1.0000
  H   H35       1.0  0.92150  0.08890  0.87390  1.0000
  H   H36       1.0  0.07850  0.91110  0.37390  1.0000
  H   H37       1.0  0.45970  0.33980  0.89400  1.0000
  H   H38       1.0  0.54030  0.66020  0.39400  1.0000
  H   H39       1.0  0.95970  0.16020  0.89400  1.0000
  H   H40       1.0  0.04030  0.83980  0.39400  1.0000
  C   C25       1.0  0.65260  0.39314  0.87708  1.0000
  C   C26       1.0  0.34740  0.60686  0.37708  1.0000
  C   C27       1.0  0.15260  0.10686  0.87708  1.0000
  C   C28       1.0  0.84740  0.89314  0.37708  1.0000
  C   C29       1.0  0.45920  0.47692  0.95321  1.0000
  C   C30       1.0  0.54080  0.52308  0.45321  1.0000
  C   C31       1.0  0.95920  0.02308  0.95321  1.0000
  C   C32       1.0  0.04080  0.97692  0.45321  1.0000
  H   H41       1.0  0.35280  0.48930  0.94600  1.0000
  H   H42       1.0  0.64720  0.51070  0.44600  1.0000
  H   H43       1.0  0.85280  0.01070  0.94600  1.0000
  H   H44       1.0  0.14720  0.98930  0.44600  1.0000
  H   H45       1.0  0.52250  0.49540  0.92460  1.0000
  H   H46       1.0  0.47750  0.50460  0.42460  1.0000
  H   H47       1.0  0.02250  0.00460  0.92460  1.0000
  H   H48       1.0  0.97750  0.99540  0.42460  1.0000
  C   C33       1.0  0.50410  0.24663  0.00318  1.0000
  C   C34       1.0  0.49590  0.75337  0.50318  1.0000
  C   C35       1.0  0.00410  0.25337  0.00318  1.0000
  C   C36       1.0  0.99590  0.74663  0.50318  1.0000
  C   C37       1.0  0.00830  0.49469  0.00079  1.0000
  C   C38       1.0  0.99170  0.50531  0.50079  1.0000
  C   C39       1.0  0.50830  0.00531  0.00079  1.0000
  C   C40       1.0  0.49170  0.99469  0.50079  1.0000
  C   C41       1.0  0.95950  0.51907  0.94723  1.0000
  C   C42       1.0  0.04050  0.48093  0.44723  1.0000
  C   C43       1.0  0.45950  0.98093  0.94723  1.0000
  C   C44       1.0  0.54050  0.01907  0.44723  1.0000
  H   H49       1.0  0.02380  0.49850  0.92000  1.0000
  H   H50       1.0  0.97620  0.50150  0.42000  1.0000
  H   H51       1.0  0.52380  0.00150  0.92000  1.0000
  H   H52       1.0  0.47620  0.99850  0.42000  1.0000
  H   H53       1.0  0.85370  0.50520  0.94090  1.0000
  H   H54       1.0  0.14630  0.49480  0.44090  1.0000
  H   H55       1.0  0.35370  0.99480  0.94090  1.0000
  H   H56       1.0  0.64630  0.00520  0.44090  1.0000
  C   C45       1.0  0.15290  0.59287  0.86762  1.0000
  C   C46       1.0  0.84710  0.40713  0.36762  1.0000
  C   C47       1.0  0.65290  0.90713  0.86762  1.0000
  C   C48       1.0  0.34710  0.09287  0.36762  1.0000
  C   C49       1.0  0.99080  0.60513  0.88503  1.0000
  C   C50       1.0  0.00920  0.39487  0.38503  1.0000
  C   C51       1.0  0.49080  0.89487  0.88503  1.0000
  C   C52       1.0  0.50920  0.10513  0.38503  1.0000
  H   H57       1.0  0.96560  0.65110  0.87910  1.0000
  H   H58       1.0  0.03440  0.34890  0.37910  1.0000
  H   H59       1.0  0.46560  0.84890  0.87910  1.0000
  H   H60       1.0  0.53440  0.15110  0.37910  1.0000
  H   H61       1.0  0.92130  0.57880  0.86320  1.0000
  H   H62       1.0  0.07870  0.42120  0.36320  1.0000
  H   H63       1.0  0.42130  0.92120  0.86320  1.0000
  H   H64       1.0  0.57870  0.07880  0.36320  1.0000
  C   C53       1.0  0.82920  0.62066  0.96177  1.0000
  C   C54       1.0  0.17080  0.37934  0.46177  1.0000
  C   C55       1.0  0.32920  0.87934  0.96177  1.0000
  C   C56       1.0  0.67080  0.12066  0.46177  1.0000
  H   H65       1.0  0.73880  0.59710  0.94880  1.0000
  H   H66       1.0  0.26120  0.40290  0.44880  1.0000
  H   H67       1.0  0.23880  0.90290  0.94880  1.0000
  H   H68       1.0  0.76120  0.09710  0.44880  1.0000
  H   H69       1.0  0.82320  0.66550  0.94850  1.0000
  H   H70       1.0  0.17680  0.33450  0.44850  1.0000
  H   H71       1.0  0.32320  0.83450  0.94850  1.0000
  H   H72       1.0  0.67680  0.16550  0.44850  1.0000
  C   C57       1.0  0.82790  0.62131  0.02152  1.0000
  C   C58       1.0  0.17210  0.37869  0.52152  1.0000
  C   C59       1.0  0.32790  0.87869  0.02152  1.0000
  C   C60       1.0  0.67210  0.12131  0.52152  1.0000
  H   H73       1.0  0.73340  0.64200  0.03400  1.0000
  H   H74       1.0  0.26660  0.35800  0.53400  1.0000
  H   H75       1.0  0.23340  0.85800  0.03400  1.0000
  H   H76       1.0  0.76660  0.14200  0.53400  1.0000
  H   H77       1.0  0.82850  0.57630  0.03470  1.0000
  H   H78       1.0  0.17150  0.42370  0.53470  1.0000
  H   H79       1.0  0.32850  0.92370  0.03470  1.0000
  H   H80       1.0  0.67150  0.07630  0.53470  1.0000
  C   C61       1.0  0.98110  0.63962  0.09991  1.0000
  C   C62       1.0  0.01890  0.36038  0.59991  1.0000
  C   C63       1.0  0.48110  0.86038  0.09991  1.0000
  C   C64       1.0  0.51890  0.13962  0.59991  1.0000
  H   H81       1.0  0.97080  0.59240  0.10490  1.0000
  H   H82       1.0  0.02920  0.40760  0.60490  1.0000
  H   H83       1.0  0.47080  0.90760  0.10490  1.0000
  H   H84       1.0  0.52920  0.09240  0.60490  1.0000
  H   H85       1.0  0.90300  0.66130  0.12170  1.0000
  H   H86       1.0  0.09700  0.33870  0.62170  1.0000
  H   H87       1.0  0.40300  0.83870  0.12170  1.0000
  H   H88       1.0  0.59700  0.16130  0.62170  1.0000
  C   C65       1.0  0.13700  0.66113  0.11741  1.0000
  C   C66       1.0  0.86300  0.33887  0.61741  1.0000
  C   C67       1.0  0.63700  0.83887  0.11741  1.0000
  C   C68       1.0  0.36300  0.16113  0.61741  1.0000
  C   C69       1.0  0.99460  0.75384  0.98673  1.0000
  C   C70       1.0  0.00540  0.24616  0.48673  1.0000
  C   C71       1.0  0.49460  0.74616  0.98673  1.0000
  C   C72       1.0  0.50540  0.25384  0.48673  1.0000
  C   C73       1.0  0.93820  0.72620  0.03838  1.0000
  C   C74       1.0  0.06180  0.27380  0.53838  1.0000
  C   C75       1.0  0.43820  0.77380  0.03838  1.0000
  C   C76       1.0  0.56180  0.22620  0.53838  1.0000
  H   H89       1.0  0.99220  0.74780  0.06780  1.0000
  H   H90       1.0  0.00780  0.25220  0.56780  1.0000
  H   H91       1.0  0.49220  0.75220  0.06780  1.0000
  H   H92       1.0  0.50780  0.24780  0.56780  1.0000
  H   H93       1.0  0.82910  0.73640  0.04200  1.0000
  H   H94       1.0  0.17090  0.26360  0.54200  1.0000
  H   H95       1.0  0.32910  0.76360  0.04200  1.0000
  H   H96       1.0  0.67090  0.23640  0.54200  1.0000
  C   C77       1.0  0.50690  0.50674  0.00496  1.0000
  C   C78       1.0  0.49310  0.49326  0.50496  1.0000
  C   C79       1.0  0.00690  0.99326  0.00496  1.0000
  C   C80       1.0  0.99310  0.00674  0.50496  1.0000
