data_image0
_chemical_formula_structural       Zn4O8C16H4C4H4C4H4C4H4C4O8C16H4C4H4C4H4C4H4C4O8H4O8C16H4C4H4C4H4C4H4C16H4C4H4C4H4C4H4C8
_chemical_formula_sum              "Zn4 O32 C128 H68"
_cell_length_a       9.486
_cell_length_b       22.084
_cell_length_c       16.399
_cell_angle_alpha    90
_cell_angle_beta     91.716
_cell_angle_gamma    90

_space_group_name_H-M_alt    "P 1"
_space_group_IT_number       1

loop_
  _space_group_symop_operation_xyz
  'x, y, z'

loop_
  _atom_site_type_symbol
  _atom_site_label
  _atom_site_symmetry_multiplicity
  _atom_site_fract_x
  _atom_site_fract_y
  _atom_site_fract_z
  _atom_site_occupancy
  Zn  Zn1       1.0  0.25042  0.38534  0.75106  1.0000
  Zn  Zn2       1.0  0.24958  0.88534  0.74894  1.0000
  Zn  Zn3       1.0  0.74958  0.61466  0.24894  1.0000
  Zn  Zn4       1.0  0.75042  0.11466  0.25106  1.0000
  O   O1        1.0  0.09840  0.41870  0.81823  1.0000
  O   O2        1.0  0.40160  0.91870  0.68177  1.0000
  O   O3        1.0  0.90160  0.58130  0.18177  1.0000
  O   O4        1.0  0.59840  0.08130  0.31823  1.0000
  O   O5        1.0  0.29730  0.46070  0.86596  1.0000
  O   O6        1.0  0.20270  0.96070  0.63404  1.0000
  O   O7        1.0  0.70270  0.53930  0.13404  1.0000
  O   O8        1.0  0.79730  0.03930  0.36596  1.0000
  C   C1        1.0  0.16880  0.45170  0.86944  1.0000
  C   C2        1.0  0.33120  0.95170  0.63056  1.0000
  C   C3        1.0  0.83120  0.54830  0.13056  1.0000
  C   C4        1.0  0.66880  0.04830  0.36944  1.0000
  C   C5        1.0  0.08380  0.47766  0.93742  1.0000
  C   C6        1.0  0.41620  0.97766  0.56258  1.0000
  C   C7        1.0  0.91620  0.52234  0.06258  1.0000
  C   C8        1.0  0.58380  0.02234  0.43742  1.0000
  C   C9        1.0  0.08880  0.44890  0.01405  1.0000
  C   C10       1.0  0.41120  0.94890  0.48595  1.0000
  C   C11       1.0  0.91120  0.55110  0.98595  1.0000
  C   C12       1.0  0.58880  0.05110  0.51405  1.0000
  C   C13       1.0  0.17590  0.39711  0.03090  1.0000
  C   C14       1.0  0.32410  0.89711  0.46910  1.0000
  C   C15       1.0  0.82410  0.60289  0.96910  1.0000
  C   C16       1.0  0.67590  0.10289  0.53090  1.0000
  H   H1        1.0  0.23287  0.38128  0.98922  1.0000
  H   H2        1.0  0.26713  0.88128  0.51078  1.0000
  H   H3        1.0  0.76713  0.61872  0.01078  1.0000
  H   H4        1.0  0.73287  0.11872  0.48922  1.0000
  C   C17       1.0  0.17830  0.37029  0.10550  1.0000
  C   C18       1.0  0.32170  0.87029  0.39450  1.0000
  C   C19       1.0  0.82170  0.62971  0.89450  1.0000
  C   C20       1.0  0.67830  0.12971  0.60550  1.0000
  H   H5        1.0  0.23805  0.33647  0.11580  1.0000
  H   H6        1.0  0.26195  0.83647  0.38420  1.0000
  H   H7        1.0  0.76195  0.66353  0.88420  1.0000
  H   H8        1.0  0.73805  0.16353  0.61580  1.0000
  C   C21       1.0  0.09190  0.39253  0.16830  1.0000
  C   C22       1.0  0.40810  0.89253  0.33170  1.0000
  C   C23       1.0  0.90810  0.60747  0.83170  1.0000
  C   C24       1.0  0.59190  0.10747  0.66830  1.0000
  H   H9        1.0  0.09339  0.37290  0.21985  1.0000
  H   H10       1.0  0.40661  0.87290  0.28015  1.0000
  H   H11       1.0  0.90661  0.62710  0.78015  1.0000
  H   H12       1.0  0.59339  0.12710  0.71985  1.0000
  C   C25       1.0  0.00710  0.44152  0.15549  1.0000
  C   C26       1.0  0.49290  0.94152  0.34451  1.0000
  C   C27       1.0  0.99290  0.55848  0.84451  1.0000
  C   C28       1.0  0.50710  0.05848  0.65549  1.0000
  H   H13       1.0  0.95062  0.45597  0.19825  1.0000
  H   H14       1.0  0.54938  0.95597  0.30175  1.0000
  H   H15       1.0  0.04938  0.54403  0.80175  1.0000
  H   H16       1.0  0.45062  0.04403  0.69825  1.0000
  C   C29       1.0  0.00230  0.47154  0.07761  1.0000
  C   C30       1.0  0.49770  0.97154  0.42239  1.0000
  C   C31       1.0  0.99770  0.52846  0.92239  1.0000
  C   C32       1.0  0.50230  0.02846  0.57761  1.0000
  O   O9        1.0  0.39300  0.42603  0.68456  1.0000
  O   O10       1.0  0.10700  0.92603  0.81544  1.0000
  O   O11       1.0  0.60700  0.57397  0.31544  1.0000
  O   O12       1.0  0.89300  0.07397  0.18456  1.0000
  O   O13       1.0  0.19940  0.47263  0.63690  1.0000
  O   O14       1.0  0.30060  0.97263  0.86310  1.0000
  O   O15       1.0  0.80060  0.52737  0.36310  1.0000
  O   O16       1.0  0.69940  0.02737  0.13690  1.0000
  C   C33       1.0  0.32510  0.46026  0.63249  1.0000
  C   C34       1.0  0.17490  0.96026  0.86751  1.0000
  C   C35       1.0  0.67490  0.53974  0.36751  1.0000
  C   C36       1.0  0.82510  0.03974  0.13249  1.0000
  C   C37       1.0  0.41260  0.48193  0.56342  1.0000
  C   C38       1.0  0.08740  0.98193  0.93658  1.0000
  C   C39       1.0  0.58740  0.51807  0.43658  1.0000
  C   C40       1.0  0.91260  0.01807  0.06342  1.0000
  C   C41       1.0  0.40830  0.44964  0.48944  1.0000
  C   C42       1.0  0.09170  0.94964  0.01056  1.0000
  C   C43       1.0  0.59170  0.55036  0.51056  1.0000
  C   C44       1.0  0.90830  0.05036  0.98944  1.0000
  C   C45       1.0  0.31670  0.39869  0.47620  1.0000
  C   C46       1.0  0.18330  0.89869  0.02380  1.0000
  C   C47       1.0  0.68330  0.60131  0.52380  1.0000
  C   C48       1.0  0.81670  0.10131  0.97620  1.0000
  H   H17       1.0  0.25750  0.38575  0.51858  1.0000
  H   H18       1.0  0.24250  0.88575  0.98142  1.0000
  H   H19       1.0  0.74250  0.61425  0.48142  1.0000
  H   H20       1.0  0.75750  0.11425  0.01858  1.0000
  C   C49       1.0  0.31360  0.36862  0.40360  1.0000
  C   C50       1.0  0.18640  0.86862  0.09640  1.0000
  C   C51       1.0  0.68640  0.63138  0.59640  1.0000
  C   C52       1.0  0.81360  0.13138  0.90360  1.0000
  H   H21       1.0  0.25136  0.33531  0.39567  1.0000
  H   H22       1.0  0.24864  0.83531  0.10433  1.0000
  H   H23       1.0  0.74864  0.66469  0.60433  1.0000
  H   H24       1.0  0.75136  0.16469  0.89567  1.0000
  C   C53       1.0  0.40260  0.38652  0.33940  1.0000
  C   C54       1.0  0.09740  0.88652  0.16060  1.0000
  C   C55       1.0  0.59740  0.61348  0.66060  1.0000
  C   C56       1.0  0.90260  0.11348  0.83940  1.0000
  H   H25       1.0  0.39985  0.36507  0.28920  1.0000
  H   H26       1.0  0.10015  0.86507  0.21080  1.0000
  H   H27       1.0  0.60015  0.63493  0.71080  1.0000
  H   H28       1.0  0.89985  0.13493  0.78920  1.0000
  C   C57       1.0  0.49190  0.43456  0.35030  1.0000
  C   C58       1.0  0.00810  0.93456  0.14970  1.0000
  C   C59       1.0  0.50810  0.56544  0.64970  1.0000
  C   C60       1.0  0.99190  0.06544  0.85030  1.0000
  H   H29       1.0  0.55161  0.44598  0.30738  1.0000
  H   H30       1.0  0.94839  0.94598  0.19262  1.0000
  H   H31       1.0  0.44839  0.55402  0.69262  1.0000
  H   H32       1.0  0.05161  0.05402  0.80738  1.0000
  C   C61       1.0  0.49710  0.46808  0.42520  1.0000
  C   C62       1.0  0.00290  0.96808  0.07480  1.0000
  C   C63       1.0  0.50290  0.53192  0.57480  1.0000
  C   C64       1.0  0.99710  0.03192  0.92520  1.0000
  O   O17       1.0  0.17110  0.33556  0.66140  1.0000
  O   O18       1.0  0.32890  0.83556  0.83860  1.0000
  O   O19       1.0  0.82890  0.66444  0.33860  1.0000
  O   O20       1.0  0.67110  0.16444  0.16140  1.0000
  O   O21       1.0  0.99300  0.29420  0.72388  1.0000
  O   O22       1.0  0.50700  0.79420  0.77612  1.0000
  O   O23       1.0  0.00700  0.70580  0.27612  1.0000
  O   O24       1.0  0.49300  0.20580  0.22388  1.0000
  H   H33       1.0  0.01200  0.29200  0.77580  1.0000
  H   H34       1.0  0.48800  0.79200  0.72420  1.0000
  H   H35       1.0  0.98800  0.70800  0.22420  1.0000
  H   H36       1.0  0.51200  0.20800  0.27580  1.0000
  O   O25       1.0  0.82610  0.17596  0.32894  1.0000
  O   O26       1.0  0.67390  0.67596  0.17106  1.0000
  O   O27       1.0  0.17390  0.82404  0.67106  1.0000
  O   O28       1.0  0.32610  0.32404  0.82894  1.0000
  O   O29       1.0  0.05820  0.17364  0.30930  1.0000
  O   O30       1.0  0.44180  0.67364  0.19070  1.0000
  O   O31       1.0  0.94180  0.82636  0.69070  1.0000
  O   O32       1.0  0.55820  0.32636  0.80930  1.0000
  C   C65       1.0  0.06130  0.30411  0.66284  1.0000
  C   C66       1.0  0.43870  0.80411  0.83716  1.0000
  C   C67       1.0  0.93870  0.69589  0.33716  1.0000
  C   C68       1.0  0.56130  0.19589  0.16284  1.0000
  C   C69       1.0  0.02400  0.27412  0.58222  1.0000
  C   C70       1.0  0.47600  0.77412  0.91778  1.0000
  C   C71       1.0  0.97600  0.72588  0.41778  1.0000
  C   C72       1.0  0.52400  0.22588  0.08222  1.0000
  C   C73       1.0  0.98070  0.30956  0.51463  1.0000
  C   C74       1.0  0.51930  0.80956  0.98537  1.0000
  C   C75       1.0  0.01930  0.69044  0.48537  1.0000
  C   C76       1.0  0.48070  0.19044  0.01463  1.0000
  C   C77       1.0  0.95990  0.37385  0.52170  1.0000
  C   C78       1.0  0.54010  0.87385  0.97830  1.0000
  C   C79       1.0  0.04010  0.62615  0.47830  1.0000
  C   C80       1.0  0.45990  0.12615  0.02170  1.0000
  H   H37       1.0  0.97911  0.39342  0.57240  1.0000
  H   H38       1.0  0.52089  0.89342  0.92760  1.0000
  H   H39       1.0  0.02089  0.60658  0.42760  1.0000
  H   H40       1.0  0.47911  0.10658  0.07240  1.0000
  C   C81       1.0  0.91280  0.40687  0.45630  1.0000
  C   C82       1.0  0.58720  0.90687  0.04370  1.0000
  C   C83       1.0  0.08720  0.59313  0.54370  1.0000
  C   C84       1.0  0.41280  0.09313  0.95630  1.0000
  H   H41       1.0  0.89763  0.44916  0.46196  1.0000
  H   H42       1.0  0.60237  0.94916  0.03804  1.0000
  H   H43       1.0  0.10237  0.55084  0.53804  1.0000
  H   H44       1.0  0.39763  0.05084  0.96196  1.0000
  C   C85       1.0  0.88640  0.37851  0.37950  1.0000
  C   C86       1.0  0.61360  0.87851  0.12050  1.0000
  C   C87       1.0  0.11360  0.62149  0.62050  1.0000
  C   C88       1.0  0.38640  0.12149  0.87950  1.0000
  H   H45       1.0  0.85368  0.40216  0.33443  1.0000
  H   H46       1.0  0.64632  0.90216  0.16557  1.0000
  H   H47       1.0  0.14632  0.59784  0.66557  1.0000
  H   H48       1.0  0.35368  0.09784  0.83443  1.0000
  C   C89       1.0  0.90710  0.31784  0.36969  1.0000
  C   C90       1.0  0.59290  0.81784  0.13031  1.0000
  C   C91       1.0  0.09290  0.68216  0.63031  1.0000
  C   C92       1.0  0.40710  0.18216  0.86969  1.0000
  H   H49       1.0  0.89022  0.29981  0.31772  1.0000
  H   H50       1.0  0.60978  0.79981  0.18228  1.0000
  H   H51       1.0  0.10978  0.70019  0.68228  1.0000
  H   H52       1.0  0.39022  0.20019  0.81772  1.0000
  C   C93       1.0  0.95420  0.28122  0.43712  1.0000
  C   C94       1.0  0.54580  0.78122  0.06288  1.0000
  C   C95       1.0  0.04580  0.71878  0.56288  1.0000
  C   C96       1.0  0.45420  0.21878  0.93712  1.0000
  C   C97       1.0  0.97480  0.21847  0.42942  1.0000
  C   C98       1.0  0.52520  0.71847  0.07058  1.0000
  C   C99       1.0  0.02520  0.78153  0.57058  1.0000
  C   C100      1.0  0.47480  0.28153  0.92942  1.0000
  C   C101      1.0  0.01710  0.18294  0.49696  1.0000
  C   C102      1.0  0.48290  0.68294  0.00304  1.0000
  C   C103      1.0  0.98290  0.81706  0.50304  1.0000
  C   C104      1.0  0.51710  0.31706  0.99696  1.0000
  C   C105      1.0  0.03960  0.11886  0.48960  1.0000
  C   C106      1.0  0.46040  0.61886  0.01040  1.0000
  C   C107      1.0  0.96040  0.88114  0.51040  1.0000
  C   C108      1.0  0.53960  0.38114  0.98960  1.0000
  H   H53       1.0  0.01971  0.09942  0.43888  1.0000
  H   H54       1.0  0.48029  0.59942  0.06112  1.0000
  H   H55       1.0  0.98029  0.90058  0.56112  1.0000
  H   H56       1.0  0.51971  0.40058  0.93888  1.0000
  C   C109      1.0  0.08890  0.08559  0.55420  1.0000
  C   C110      1.0  0.41110  0.58559  0.94580  1.0000
  C   C111      1.0  0.91110  0.91441  0.44580  1.0000
  C   C112      1.0  0.58890  0.41441  0.05420  1.0000
  H   H57       1.0  0.10496  0.04340  0.54804  1.0000
  H   H58       1.0  0.39504  0.54340  0.95196  1.0000
  H   H59       1.0  0.89504  0.95660  0.45196  1.0000
  H   H60       1.0  0.60496  0.45660  0.04804  1.0000
  C   C113      1.0  0.11650  0.11378  0.63070  1.0000
  C   C114      1.0  0.38350  0.61378  0.86930  1.0000
  C   C115      1.0  0.88350  0.88622  0.36930  1.0000
  C   C116      1.0  0.61650  0.38622  0.13070  1.0000
  H   H61       1.0  0.15217  0.09025  0.67523  1.0000
  H   H62       1.0  0.34783  0.59025  0.82477  1.0000
  H   H63       1.0  0.84783  0.90975  0.32477  1.0000
  H   H64       1.0  0.65217  0.40975  0.17523  1.0000
  C   C117      1.0  0.09260  0.17396  0.64150  1.0000
  C   C118      1.0  0.40740  0.67396  0.85850  1.0000
  C   C119      1.0  0.90740  0.82604  0.35850  1.0000
  C   C120      1.0  0.59260  0.32604  0.14150  1.0000
  H   H65       1.0  0.10957  0.19165  0.69366  1.0000
  H   H66       1.0  0.39043  0.69165  0.80634  1.0000
  H   H67       1.0  0.89043  0.80835  0.30634  1.0000
  H   H68       1.0  0.60957  0.30835  0.19366  1.0000
  C   C121      1.0  0.04180  0.21119  0.57463  1.0000
  C   C122      1.0  0.45820  0.71119  0.92537  1.0000
  C   C123      1.0  0.95820  0.78881  0.42537  1.0000
  C   C124      1.0  0.54180  0.28881  0.07463  1.0000
  C   C125      1.0  0.95180  0.18758  0.34805  1.0000
  C   C126      1.0  0.54820  0.68758  0.15195  1.0000
  C   C127      1.0  0.04820  0.81242  0.65195  1.0000
  C   C128      1.0  0.45180  0.31242  0.84805  1.0000
