data_image0
_chemical_formula_structural       Cu4S6C4H2C2H2N2C6H2CdCu2N2H2N2O2N2O6C2H2C2H2C12H2O4C2H4C4H2C2H4C2H2N2H6C2H2
_chemical_formula_sum              "Cu6 S6 C40 H34 N10 Cd1 O12"
_cell_length_a       11.6027
_cell_length_b       12.0784
_cell_length_c       12.2986
_cell_angle_alpha    64.612
_cell_angle_beta     82.183
_cell_angle_gamma    75.63

_space_group_name_H-M_alt    "P 1"
_space_group_IT_number       1

loop_
  _space_group_symop_operation_xyz
  'x, y, z'

loop_
  _atom_site_type_symbol
  _atom_site_label
  _atom_site_symmetry_multiplicity
  _atom_site_fract_x
  _atom_site_fract_y
  _atom_site_fract_z
  _atom_site_occupancy
  Cu  Cu1       1.0  0.87801  0.03391  0.85486  1.0000
  Cu  Cu2       1.0  0.12199  0.96609  0.14514  1.0000
  Cu  Cu3       1.0  0.08775  0.85399  0.93008  1.0000
  Cu  Cu4       1.0  0.91225  0.14601  0.06992  1.0000
  S   S1        1.0  0.20554  0.81094  0.08210  1.0000
  S   S2        1.0  0.79446  0.18906  0.91790  1.0000
  S   S3        1.0  0.13866  0.03087  0.79092  1.0000
  S   S4        1.0  0.86134  0.96913  0.20908  1.0000
  S   S5        1.0  0.83266  0.85018  0.98600  1.0000
  S   S6        1.0  0.16734  0.14982  0.01400  1.0000
  C   C1        1.0  0.90150  0.73770  0.92730  1.0000
  C   C2        1.0  0.09850  0.26230  0.07270  1.0000
  C   C3        1.0  0.91160  0.57010  0.86740  1.0000
  C   C4        1.0  0.08840  0.42990  0.13260  1.0000
  H   H1        1.0  0.87585  0.51438  0.85733  1.0000
  H   H2        1.0  0.12415  0.48562  0.14267  1.0000
  C   C5        1.0  0.03100  0.56680  0.83860  1.0000
  C   C6        1.0  0.96900  0.43320  0.16140  1.0000
  H   H3        1.0  0.07592  0.51104  0.80740  1.0000
  H   H4        1.0  0.92408  0.48896  0.19260  1.0000
  N   N1        1.0  0.93550  0.09220  0.68090  1.0000
  N   N2        1.0  0.06450  0.90780  0.31910  1.0000
  C   C7        1.0  0.05410  0.08500  0.66250  1.0000
  C   C8        1.0  0.94590  0.91500  0.33750  1.0000
  C   C9        1.0  0.84330  0.65600  0.91180  1.0000
  C   C10       1.0  0.15670  0.34400  0.08820  1.0000
  C   C11       1.0  0.08220  0.64930  0.85750  1.0000
  C   C12       1.0  0.91780  0.35070  0.14250  1.0000
  H   H5        1.0  0.16306  0.64670  0.83973  1.0000
  H   H6        1.0  0.83694  0.35330  0.16027  1.0000
  Cd  Cd1       1.0  0.50000  0.50000  1.00000  1.0000
  Cu  Cu5       1.0  0.94904  0.82839  0.12913  1.0000
  Cu  Cu6       1.0  0.05096  0.17161  0.87087  1.0000
  N   N3        1.0  0.41080  0.70330  0.89170  1.0000
  N   N4        1.0  0.58920  0.29670  0.10830  1.0000
  H   H7        1.0  0.38972  0.75338  0.92714  1.0000
  H   H8        1.0  0.61028  0.24662  0.07286  1.0000
  N   N5        1.0  0.02030  0.73240  0.90020  1.0000
  N   N6        1.0  0.97970  0.26760  0.09980  1.0000
  O   O1        1.0  0.46150  0.54010  0.17740  1.0000
  O   O2        1.0  0.53850  0.45990  0.82260  1.0000
  N   N7        1.0  0.06140  0.67040  0.23500  1.0000
  N   N8        1.0  0.93860  0.32960  0.76500  1.0000
  O   O3        1.0  0.29550  0.03050  0.48240  1.0000
  O   O4        1.0  0.70450  0.96950  0.51760  1.0000
  O   O5        1.0  0.43100  0.65720  0.28170  1.0000
  O   O6        1.0  0.56900  0.34280  0.71830  1.0000
  O   O7        1.0  0.28940  0.17440  0.55200  1.0000
  O   O8        1.0  0.71060  0.82560  0.44800  1.0000
  C   C13       1.0  0.86680  0.13830  0.58490  1.0000
  C   C14       1.0  0.13320  0.86170  0.41510  1.0000
  H   H9        1.0  0.78484  0.14685  0.59775  1.0000
  H   H10       1.0  0.21516  0.85315  0.40225  1.0000
  C   C15       1.0  0.03440  0.56800  0.32960  1.0000
  C   C16       1.0  0.96560  0.43200  0.67040  1.0000
  H   H11       1.0  0.95480  0.56469  0.35031  1.0000
  H   H12       1.0  0.04520  0.43531  0.64969  1.0000
  C   C17       1.0  0.39700  0.59250  0.23990  1.0000
  C   C18       1.0  0.60300  0.40750  0.76010  1.0000
  C   C19       1.0  0.10770  0.11830  0.54630  1.0000
  C   C20       1.0  0.89230  0.88170  0.45370  1.0000
  C   C21       1.0  0.24130  0.10660  0.52630  1.0000
  C   C22       1.0  0.75870  0.89340  0.47370  1.0000
  C   C23       1.0  0.26940  0.57820  0.27040  1.0000
  C   C24       1.0  0.73060  0.42180  0.72960  1.0000
  C   C25       1.0  0.17680  0.67470  0.20610  1.0000
  C   C26       1.0  0.82320  0.32530  0.79390  1.0000
  C   C27       1.0  0.03560  0.16090  0.44860  1.0000
  C   C28       1.0  0.96440  0.83910  0.55140  1.0000
  H   H13       1.0  0.06900  0.18085  0.37118  1.0000
  H   H14       1.0  0.93100  0.81915  0.62882  1.0000
  O   O9        1.0  0.63910  0.75490  0.92290  1.0000
  O   O10       1.0  0.36090  0.24510  0.07710  1.0000
  O   O11       1.0  0.68700  0.54720  0.97660  1.0000
  O   O12       1.0  0.31300  0.45280  0.02340  1.0000
  C   C29       1.0  0.38770  0.75210  0.76160  1.0000
  C   C30       1.0  0.61230  0.24790  0.23840  1.0000
  H   H15       1.0  0.32925  0.83059  0.73717  1.0000
  H   H16       1.0  0.67075  0.16941  0.26283  1.0000
  H   H17       1.0  0.35655  0.69255  0.74680  1.0000
  H   H18       1.0  0.64345  0.30745  0.25320  1.0000
  C   C31       1.0  0.71240  0.65330  0.94010  1.0000
  C   C32       1.0  0.28760  0.34670  0.05990  1.0000
  C   C33       1.0  0.12120  0.46860  0.39630  1.0000
  C   C34       1.0  0.87880  0.53140  0.60370  1.0000
  H   H19       1.0  0.10026  0.39900  0.46007  1.0000
  H   H20       1.0  0.89974  0.60100  0.53993  1.0000
  C   C35       1.0  0.50330  0.77270  0.68950  1.0000
  C   C36       1.0  0.49670  0.22730  0.31050  1.0000
  H   H21       1.0  0.53401  0.83244  0.70447  1.0000
  H   H22       1.0  0.46599  0.16756  0.29553  1.0000
  H   H23       1.0  0.56179  0.69423  0.71499  1.0000
  H   H24       1.0  0.43821  0.30577  0.28501  1.0000
  C   C37       1.0  0.23970  0.47390  0.36700  1.0000
  C   C38       1.0  0.76030  0.52610  0.63300  1.0000
  H   H25       1.0  0.29920  0.40817  0.41151  1.0000
  H   H26       1.0  0.70080  0.59183  0.58849  1.0000
  N   N9        1.0  0.48400  0.82080  0.55840  1.0000
  N   N10       1.0  0.51600  0.17920  0.44160  1.0000
  H   H27       1.0  0.55253  0.83237  0.51743  1.0000
  H   H28       1.0  0.44747  0.16763  0.48257  1.0000
  H   H29       1.0  0.45679  0.76543  0.54465  1.0000
  H   H30       1.0  0.54321  0.23457  0.45535  1.0000
  H   H31       1.0  0.43109  0.89333  0.53491  1.0000
  H   H32       1.0  0.56891  0.10667  0.46509  1.0000
  C   C39       1.0  0.91260  0.17330  0.46830  1.0000
  C   C40       1.0  0.08740  0.82670  0.53170  1.0000
  H   H33       1.0  0.86254  0.20454  0.40402  1.0000
  H   H34       1.0  0.13746  0.79546  0.59598  1.0000
