data_image0
_chemical_formula_structural       Ag4S8O24N16C4H2C2H2C2H2C4H2C2H2C2H2C2H2C2H2C2H2C6H2C2H2C2H2
_chemical_formula_sum              "Ag4 S8 O24 N16 C32 H24"
_cell_length_a       11.3851
_cell_length_b       13.514
_cell_length_c       14.5767
_cell_angle_alpha    74.044
_cell_angle_beta     89.772
_cell_angle_gamma    88.95

_space_group_name_H-M_alt    "P 1"
_space_group_IT_number       1

loop_
  _space_group_symop_operation_xyz
  'x, y, z'

loop_
  _atom_site_type_symbol
  _atom_site_label
  _atom_site_symmetry_multiplicity
  _atom_site_fract_x
  _atom_site_fract_y
  _atom_site_fract_z
  _atom_site_occupancy
  Ag  Ag1       1.0  0.63070  0.99734  0.91093  1.0000
  Ag  Ag2       1.0  0.36930  0.00266  0.08907  1.0000
  Ag  Ag3       1.0  0.13013  0.02501  0.58611  1.0000
  Ag  Ag4       1.0  0.86987  0.97499  0.41389  1.0000
  S   S1        1.0  0.76640  0.20960  0.94500  1.0000
  S   S2        1.0  0.23360  0.79040  0.05500  1.0000
  S   S3        1.0  0.77210  0.79630  0.82930  1.0000
  S   S4        1.0  0.22790  0.20370  0.17070  1.0000
  S   S5        1.0  0.26620  0.22200  0.65570  1.0000
  S   S6        1.0  0.73380  0.77800  0.34430  1.0000
  S   S7        1.0  0.25200  0.80000  0.56220  1.0000
  S   S8        1.0  0.74800  0.20000  0.43780  1.0000
  O   O1        1.0  0.65600  0.18930  0.90990  1.0000
  O   O2        1.0  0.34400  0.81070  0.09010  1.0000
  O   O3        1.0  0.85070  0.24130  0.86930  1.0000
  O   O4        1.0  0.14930  0.75870  0.13070  1.0000
  O   O5        1.0  0.76030  0.27390  0.00700  1.0000
  O   O6        1.0  0.23970  0.72610  0.99300  1.0000
  O   O7        1.0  0.65640  0.80980  0.86340  1.0000
  O   O8        1.0  0.34360  0.19020  0.13660  1.0000
  O   O9        1.0  0.77560  0.73400  0.76360  1.0000
  O   O10       1.0  0.22440  0.26600  0.23640  1.0000
  O   O11       1.0  0.85800  0.76730  0.90490  1.0000
  O   O12       1.0  0.14200  0.23270  0.09510  1.0000
  O   O13       1.0  0.14860  0.20560  0.62740  1.0000
  O   O14       1.0  0.85140  0.79440  0.37260  1.0000
  O   O15       1.0  0.27430  0.29190  0.71580  1.0000
  O   O16       1.0  0.72570  0.70810  0.28420  1.0000
  O   O17       1.0  0.34560  0.24470  0.57440  1.0000
  O   O18       1.0  0.65440  0.75530  0.42560  1.0000
  O   O19       1.0  0.13290  0.82730  0.58560  1.0000
  O   O20       1.0  0.86710  0.17270  0.41440  1.0000
  O   O21       1.0  0.25460  0.73160  0.50570  1.0000
  O   O22       1.0  0.74540  0.26840  0.49430  1.0000
  O   O23       1.0  0.32760  0.76960  0.64570  1.0000
  O   O24       1.0  0.67240  0.23040  0.35430  1.0000
  N   N1        1.0  0.77570  0.00280  0.01420  1.0000
  N   N2        1.0  0.22430  0.99720  0.98580  1.0000
  N   N3        1.0  0.97500  0.00180  0.12460  1.0000
  N   N4        1.0  0.02500  0.99820  0.87540  1.0000
  N   N5        1.0  0.76320  0.00420  0.77490  1.0000
  N   N6        1.0  0.23680  0.99580  0.22510  1.0000
  N   N7        1.0  0.94760  0.01770  0.65280  1.0000
  N   N8        1.0  0.05240  0.98230  0.34720  1.0000
  N   N9        1.0  0.45790  0.00570  0.84170  1.0000
  N   N10       1.0  0.54210  0.99430  0.15830  1.0000
  N   N11       1.0  0.26750  0.01480  0.72020  1.0000
  N   N12       1.0  0.73250  0.98520  0.27980  1.0000
  N   N13       1.0  0.27210  0.00580  0.48650  1.0000
  N   N14       1.0  0.72790  0.99420  0.51350  1.0000
  N   N15       1.0  0.47290  0.98450  0.38210  1.0000
  N   N16       1.0  0.52710  0.01550  0.61790  1.0000
  C   C1        1.0  0.82720  0.08930  0.01460  1.0000
  C   C2        1.0  0.17280  0.91070  0.98540  1.0000
  C   C3        1.0  0.92370  0.09150  0.06960  1.0000
  C   C4        1.0  0.07630  0.90850  0.93040  1.0000
  H   H1        1.0  0.95510  0.15440  0.06980  1.0000
  H   H2        1.0  0.04490  0.84560  0.93020  1.0000
  C   C5        1.0  0.92280  0.91760  0.12200  1.0000
  C   C6        1.0  0.07720  0.08240  0.87800  1.0000
  H   H3        1.0  0.95300  0.85530  0.15960  1.0000
  H   H4        1.0  0.04700  0.14470  0.84040  1.0000
  C   C7        1.0  0.82510  0.91510  0.06660  1.0000
  C   C8        1.0  0.17490  0.08490  0.93340  1.0000
  H   H5        1.0  0.79370  0.85230  0.06590  1.0000
  H   H6        1.0  0.20630  0.14770  0.93410  1.0000
  C   C9        1.0  0.81870  0.91950  0.76270  1.0000
  C   C10       1.0  0.18130  0.08050  0.23730  1.0000
  C   C11       1.0  0.91550  0.92670  0.70230  1.0000
  C   C12       1.0  0.08450  0.07330  0.29770  1.0000
  H   H7        1.0  0.95600  0.86790  0.69760  1.0000
  H   H8        1.0  0.04400  0.13210  0.30240  1.0000
  C   C13       1.0  0.90290  0.09980  0.66520  1.0000
  C   C14       1.0  0.09710  0.90020  0.33480  1.0000
  H   H9        1.0  0.93360  0.16340  0.63350  1.0000
  H   H10       1.0  0.06640  0.83660  0.36650  1.0000
  C   C15       1.0  0.80720  0.09420  0.72680  1.0000
  C   C16       1.0  0.19280  0.90580  0.27320  1.0000
  H   H11       1.0  0.77350  0.15470  0.73430  1.0000
  H   H12       1.0  0.22650  0.84530  0.26570  1.0000
  C   C17       1.0  0.31330  0.92680  0.77300  1.0000
  C   C18       1.0  0.68670  0.07320  0.22700  1.0000
  H   H13       1.0  0.28150  0.86550  0.76810  1.0000
  H   H14       1.0  0.71850  0.13450  0.23190  1.0000
  C   C19       1.0  0.40440  0.92200  0.83390  1.0000
  C   C20       1.0  0.59560  0.07800  0.16610  1.0000
  H   H15       1.0  0.43020  0.85800  0.87130  1.0000
  H   H16       1.0  0.56980  0.14200  0.12870  1.0000
  C   C21       1.0  0.41290  0.09750  0.78910  1.0000
  C   C22       1.0  0.58710  0.90250  0.21090  1.0000
  H   H17       1.0  0.44500  0.15840  0.79450  1.0000
  H   H18       1.0  0.55500  0.84160  0.20550  1.0000
  C   C23       1.0  0.31960  0.10090  0.72760  1.0000
  C   C24       1.0  0.68040  0.89910  0.27240  1.0000
  C   C25       1.0  0.31940  0.91420  0.48890  1.0000
  C   C26       1.0  0.68060  0.08580  0.51110  1.0000
  C   C27       1.0  0.41730  0.90350  0.43540  1.0000
  C   C28       1.0  0.58270  0.09650  0.56460  1.0000
  H   H19       1.0  0.44460  0.83780  0.43680  1.0000
  H   H20       1.0  0.55540  0.16220  0.56320  1.0000
  C   C29       1.0  0.42430  0.07730  0.37970  1.0000
  C   C30       1.0  0.57570  0.92270  0.62030  1.0000
  H   H21       1.0  0.45670  0.13620  0.33960  1.0000
  H   H22       1.0  0.54330  0.86380  0.66040  1.0000
  C   C31       1.0  0.33190  0.08730  0.43280  1.0000
  C   C32       1.0  0.66810  0.91270  0.56720  1.0000
  H   H23       1.0  0.30710  0.15320  0.43310  1.0000
  H   H24       1.0  0.69290  0.84680  0.56690  1.0000
