data_image0
_chemical_formula_structural       Co6O40C8H4C8H4C8H4C16H12C8H12N4
_chemical_formula_sum              "Co6 O40 C48 H36 N4"
_cell_length_a       7.9839
_cell_length_b       20.911
_cell_length_c       13.594
_cell_angle_alpha    90
_cell_angle_beta     91.7
_cell_angle_gamma    90

_space_group_name_H-M_alt    "P 1"
_space_group_IT_number       1

loop_
  _space_group_symop_operation_xyz
  'x, y, z'

loop_
  _atom_site_type_symbol
  _atom_site_label
  _atom_site_symmetry_multiplicity
  _atom_site_fract_x
  _atom_site_fract_y
  _atom_site_fract_z
  _atom_site_occupancy
  Co  Co1       1.0  0.50000  0.00000  1.00000  1.0000
  Co  Co2       1.0  0.00000  0.50000  0.50000  1.0000
  Co  Co3       1.0  0.49435  0.16502  0.01753  1.0000
  Co  Co4       1.0  0.00565  0.66502  0.48247  1.0000
  Co  Co5       1.0  0.50565  0.83498  0.98247  1.0000
  Co  Co6       1.0  0.99435  0.33498  0.51753  1.0000
  O   O1        1.0  0.63140  0.85267  0.11028  1.0000
  O   O2        1.0  0.86860  0.35267  0.38972  1.0000
  O   O3        1.0  0.36860  0.14733  0.88972  1.0000
  O   O4        1.0  0.13140  0.64733  0.61028  1.0000
  O   O5        1.0  0.59890  0.95873  0.12868  1.0000
  O   O6        1.0  0.90110  0.45873  0.37132  1.0000
  O   O7        1.0  0.40110  0.04127  0.87132  1.0000
  O   O8        1.0  0.09890  0.54127  0.62868  1.0000
  O   O9        1.0  0.99270  0.76639  0.50377  1.0000
  O   O10       1.0  0.50730  0.26639  0.99623  1.0000
  O   O11       1.0  0.00730  0.23361  0.49623  1.0000
  O   O12       1.0  0.49270  0.73361  0.00377  1.0000
  O   O13       1.0  0.89730  0.72459  0.36514  1.0000
  O   O14       1.0  0.60270  0.22459  0.13486  1.0000
  O   O15       1.0  0.10270  0.27541  0.63486  1.0000
  O   O16       1.0  0.39730  0.77541  0.86514  1.0000
  O   O17       1.0  0.72230  0.04913  0.45390  1.0000
  O   O18       1.0  0.77770  0.54913  0.04610  1.0000
  O   O19       1.0  0.27770  0.95087  0.54610  1.0000
  O   O20       1.0  0.22230  0.45087  0.95390  1.0000
  O   O21       1.0  0.83990  0.99427  0.56737  1.0000
  O   O22       1.0  0.66010  0.49427  0.93263  1.0000
  O   O23       1.0  0.16010  0.00573  0.43263  1.0000
  O   O24       1.0  0.33990  0.50573  0.06737  1.0000
  O   O25       1.0  0.26760  0.96091  0.02287  1.0000
  O   O26       1.0  0.23240  0.46091  0.47713  1.0000
  O   O27       1.0  0.73240  0.03909  0.97713  1.0000
  O   O28       1.0  0.76760  0.53909  0.52287  1.0000
  O   O29       1.0  0.27020  0.85365  0.02811  1.0000
  O   O30       1.0  0.22980  0.35365  0.47189  1.0000
  O   O31       1.0  0.72980  0.14635  0.97189  1.0000
  O   O32       1.0  0.77020  0.64635  0.52811  1.0000
  O   O33       1.0  0.44560  0.07904  0.08706  1.0000
  O   O34       1.0  0.05440  0.57904  0.41294  1.0000
  O   O35       1.0  0.55440  0.92096  0.91294  1.0000
  O   O36       1.0  0.94560  0.42096  0.58706  1.0000
  O   O37       1.0  0.27070  0.15541  0.11668  1.0000
  O   O38       1.0  0.22930  0.65541  0.38332  1.0000
  O   O39       1.0  0.72930  0.84459  0.88332  1.0000
  O   O40       1.0  0.77070  0.34459  0.61668  1.0000
  C   C1        1.0  0.72070  0.90012  0.25959  1.0000
  C   C2        1.0  0.77930  0.40012  0.24041  1.0000
  C   C3        1.0  0.27930  0.09988  0.74041  1.0000
  C   C4        1.0  0.22070  0.59988  0.75959  1.0000
  C   C5        1.0  0.79120  0.84272  0.29238  1.0000
  C   C6        1.0  0.70880  0.34272  0.20762  1.0000
  C   C7        1.0  0.20880  0.15728  0.70762  1.0000
  C   C8        1.0  0.29120  0.65728  0.79238  1.0000
  H   H1        1.0  0.79360  0.80720  0.24880  1.0000
  H   H2        1.0  0.70640  0.30720  0.25120  1.0000
  H   H3        1.0  0.20640  0.19280  0.75120  1.0000
  H   H4        1.0  0.29360  0.69280  0.74880  1.0000
  C   C9        1.0  0.85790  0.83632  0.38689  1.0000
  C   C10       1.0  0.64210  0.33632  0.11311  1.0000
  C   C11       1.0  0.14210  0.16368  0.61311  1.0000
  C   C12       1.0  0.35790  0.66368  0.88689  1.0000
  C   C13       1.0  0.85740  0.88821  0.45117  1.0000
  C   C14       1.0  0.64260  0.38821  0.04883  1.0000
  C   C15       1.0  0.14260  0.11179  0.54883  1.0000
  C   C16       1.0  0.35740  0.61179  0.95117  1.0000
  H   H5        1.0  0.90360  0.88490  0.51620  1.0000
  H   H6        1.0  0.59640  0.38490  0.98380  1.0000
  H   H7        1.0  0.09640  0.11510  0.48380  1.0000
  H   H8        1.0  0.40360  0.61510  0.01620  1.0000
  C   C17       1.0  0.78720  0.94479  0.41690  1.0000
  C   C18       1.0  0.71280  0.44479  0.08310  1.0000
  C   C19       1.0  0.21280  0.05521  0.58310  1.0000
  C   C20       1.0  0.28720  0.55521  0.91690  1.0000
  C   C21       1.0  0.71870  0.95217  0.32290  1.0000
  C   C22       1.0  0.78130  0.45217  0.17710  1.0000
  C   C23       1.0  0.28130  0.04783  0.67710  1.0000
  C   C24       1.0  0.21870  0.54783  0.82290  1.0000
  H   H9        1.0  0.67160  0.99180  0.30220  1.0000
  H   H10       1.0  0.82840  0.49180  0.19780  1.0000
  H   H11       1.0  0.32840  0.00820  0.69780  1.0000
  H   H12       1.0  0.17160  0.50820  0.80220  1.0000
  C   C25       1.0  0.64410  0.90478  0.15742  1.0000
  C   C26       1.0  0.85590  0.40478  0.34258  1.0000
  C   C27       1.0  0.35590  0.09522  0.84258  1.0000
  C   C28       1.0  0.14410  0.59522  0.65742  1.0000
  C   C29       1.0  0.92220  0.77186  0.42066  1.0000
  C   C30       1.0  0.57780  0.27186  0.07934  1.0000
  C   C31       1.0  0.07780  0.22814  0.57934  1.0000
  C   C32       1.0  0.42220  0.72814  0.92066  1.0000
  C   C33       1.0  0.20140  0.90813  0.03830  1.0000
  C   C34       1.0  0.29860  0.40813  0.46170  1.0000
  C   C35       1.0  0.79860  0.09187  0.96170  1.0000
  C   C36       1.0  0.70140  0.59187  0.53830  1.0000
  C   C37       1.0  0.02330  0.90833  0.07230  1.0000
  C   C38       1.0  0.47670  0.40833  0.42770  1.0000
  C   C39       1.0  0.97670  0.09167  0.92770  1.0000
  C   C40       1.0  0.52330  0.59167  0.57230  1.0000
  H   H13       1.0  0.98370  0.95250  0.07740  1.0000
  H   H14       1.0  0.51630  0.45250  0.42260  1.0000
  H   H15       1.0  0.01630  0.04750  0.92260  1.0000
  H   H16       1.0  0.48370  0.54750  0.57740  1.0000
  H   H17       1.0  0.01880  0.88760  0.13680  1.0000
  H   H18       1.0  0.48120  0.38760  0.36320  1.0000
  H   H19       1.0  0.98120  0.11240  0.86320  1.0000
  H   H20       1.0  0.51880  0.61240  0.63680  1.0000
  H   H21       1.0  0.95170  0.88500  0.02480  1.0000
  H   H22       1.0  0.54830  0.38500  0.47520  1.0000
  H   H23       1.0  0.04830  0.11500  0.97520  1.0000
  H   H24       1.0  0.45170  0.61500  0.52480  1.0000
  C   C41       1.0  0.31700  0.09951  0.13173  1.0000
  C   C42       1.0  0.18300  0.59951  0.36827  1.0000
  C   C43       1.0  0.68300  0.90049  0.86827  1.0000
  C   C44       1.0  0.81700  0.40049  0.63173  1.0000
  C   C45       1.0  0.23150  0.05661  0.20230  1.0000
  C   C46       1.0  0.26850  0.55661  0.29770  1.0000
  C   C47       1.0  0.76850  0.94339  0.79770  1.0000
  C   C48       1.0  0.73150  0.44339  0.70230  1.0000
  H   H25       1.0  0.13640  0.07920  0.23020  1.0000
  H   H26       1.0  0.36360  0.57920  0.26980  1.0000
  H   H27       1.0  0.86360  0.92080  0.76980  1.0000
  H   H28       1.0  0.63640  0.42080  0.73020  1.0000
  H   H29       1.0  0.31080  0.04430  0.25540  1.0000
  H   H30       1.0  0.18920  0.54430  0.24460  1.0000
  H   H31       1.0  0.68920  0.95570  0.74460  1.0000
  H   H32       1.0  0.81080  0.45570  0.75540  1.0000
  H   H33       1.0  0.19110  0.01820  0.16770  1.0000
  H   H34       1.0  0.30890  0.51820  0.33230  1.0000
  H   H35       1.0  0.80890  0.98180  0.83230  1.0000
  H   H36       1.0  0.69110  0.48180  0.66770  1.0000
  N   N1        1.0  0.78150  0.99957  0.48470  1.0000
  N   N2        1.0  0.71850  0.49957  0.01530  1.0000
  N   N3        1.0  0.21850  0.00043  0.51530  1.0000
  N   N4        1.0  0.28150  0.50043  0.98470  1.0000
