data_image0
_chemical_formula_structural       Co4O32C12H4C8H4C4H4C12H4C8H4C4H4C16
_chemical_formula_sum              "Co4 O32 C64 H24"
_cell_length_a       10.113
_cell_length_b       26.6767
_cell_length_c       10.9905
_cell_angle_alpha    90
_cell_angle_beta     100.523
_cell_angle_gamma    90

_space_group_name_H-M_alt    "P 1"
_space_group_IT_number       1

loop_
  _space_group_symop_operation_xyz
  'x, y, z'

loop_
  _atom_site_type_symbol
  _atom_site_label
  _atom_site_symmetry_multiplicity
  _atom_site_fract_x
  _atom_site_fract_y
  _atom_site_fract_z
  _atom_site_occupancy
  Co  Co1       1.0  0.47502  0.85528  0.54449  1.0000
  Co  Co2       1.0  0.02498  0.35528  0.95551  1.0000
  Co  Co3       1.0  0.52498  0.14472  0.45551  1.0000
  Co  Co4       1.0  0.97502  0.64472  0.04449  1.0000
  O   O1        1.0  0.32950  0.14044  0.45810  1.0000
  O   O2        1.0  0.17050  0.64044  0.04190  1.0000
  O   O3        1.0  0.67050  0.85956  0.54190  1.0000
  O   O4        1.0  0.82950  0.35956  0.95810  1.0000
  O   O5        1.0  0.15790  0.09145  0.47800  1.0000
  O   O6        1.0  0.34210  0.59145  0.02200  1.0000
  O   O7        1.0  0.84210  0.90855  0.52200  1.0000
  O   O8        1.0  0.65790  0.40855  0.97800  1.0000
  O   O9        1.0  0.45990  0.89665  0.29580  1.0000
  O   O10       1.0  0.04010  0.39665  0.20420  1.0000
  O   O11       1.0  0.54010  0.10335  0.70420  1.0000
  O   O12       1.0  0.95990  0.60335  0.79580  1.0000
  O   O13       1.0  0.39630  0.91821  0.47120  1.0000
  O   O14       1.0  0.10370  0.41821  0.02880  1.0000
  O   O15       1.0  0.60370  0.08179  0.52880  1.0000
  O   O16       1.0  0.89630  0.58179  0.97120  1.0000
  O   O17       1.0  0.58360  0.14107  0.29280  1.0000
  O   O18       1.0  0.91640  0.64107  0.20720  1.0000
  O   O19       1.0  0.41640  0.85893  0.70720  1.0000
  O   O20       1.0  0.08360  0.35893  0.79280  1.0000
  O   O21       1.0  0.59060  0.15527  0.09750  1.0000
  O   O22       1.0  0.90940  0.65527  0.40250  1.0000
  O   O23       1.0  0.40940  0.84473  0.90250  1.0000
  O   O24       1.0  0.09060  0.34473  0.59750  1.0000
  O   O25       1.0  0.25060  0.30892  0.04170  1.0000
  O   O26       1.0  0.24940  0.80892  0.45830  1.0000
  O   O27       1.0  0.74940  0.69108  0.95830  1.0000
  O   O28       1.0  0.75060  0.19108  0.54170  1.0000
  O   O29       1.0  0.04030  0.28516  0.01430  1.0000
  O   O30       1.0  0.45970  0.78516  0.48570  1.0000
  O   O31       1.0  0.95970  0.71484  0.98570  1.0000
  O   O32       1.0  0.54030  0.21484  0.51430  1.0000
  C   C1        1.0  0.32440  0.07775  0.23040  1.0000
  C   C2        1.0  0.17560  0.57775  0.26960  1.0000
  C   C3        1.0  0.67560  0.92225  0.76960  1.0000
  C   C4        1.0  0.82440  0.42225  0.73040  1.0000
  C   C5        1.0  0.30690  0.06302  0.34840  1.0000
  C   C6        1.0  0.19310  0.56302  0.15160  1.0000
  C   C7        1.0  0.69310  0.93698  0.65160  1.0000
  C   C8        1.0  0.80690  0.43698  0.84840  1.0000
  C   C9        1.0  0.33660  0.01476  0.39040  1.0000
  C   C10       1.0  0.16340  0.51476  0.10960  1.0000
  C   C11       1.0  0.66340  0.98524  0.60960  1.0000
  C   C12       1.0  0.83660  0.48524  0.89040  1.0000
  H   H1        1.0  0.32510  0.00590  0.46970  1.0000
  H   H2        1.0  0.17490  0.50590  0.03030  1.0000
  H   H3        1.0  0.67490  0.99410  0.53030  1.0000
  H   H4        1.0  0.82510  0.49410  0.96970  1.0000
  C   C13       1.0  0.38300  0.97960  0.31660  1.0000
  C   C14       1.0  0.11700  0.47960  0.18340  1.0000
  C   C15       1.0  0.61700  0.02040  0.68340  1.0000
  C   C16       1.0  0.88300  0.52040  0.81660  1.0000
  C   C17       1.0  0.39980  0.99413  0.19690  1.0000
  C   C18       1.0  0.10020  0.49413  0.30310  1.0000
  C   C19       1.0  0.60020  0.00587  0.80310  1.0000
  C   C20       1.0  0.89980  0.50587  0.69690  1.0000
  H   H5        1.0  0.43270  0.97120  0.14600  1.0000
  H   H6        1.0  0.06730  0.47120  0.35400  1.0000
  H   H7        1.0  0.56730  0.02880  0.85400  1.0000
  H   H8        1.0  0.93270  0.52880  0.64600  1.0000
  C   C21       1.0  0.36730  0.04278  0.15450  1.0000
  C   C22       1.0  0.13270  0.54278  0.34550  1.0000
  C   C23       1.0  0.63270  0.95722  0.84550  1.0000
  C   C24       1.0  0.86730  0.45722  0.65450  1.0000
  H   H9        1.0  0.37490  0.05150  0.07420  1.0000
  H   H10       1.0  0.12510  0.55150  0.42580  1.0000
  H   H11       1.0  0.62510  0.94850  0.92580  1.0000
  H   H12       1.0  0.87490  0.44850  0.57420  1.0000
  C   C25       1.0  0.28600  0.12967  0.18170  1.0000
  C   C26       1.0  0.21400  0.62967  0.31830  1.0000
  C   C27       1.0  0.71400  0.87033  0.81830  1.0000
  C   C28       1.0  0.78600  0.37033  0.68170  1.0000
  C   C29       1.0  0.38080  0.16379  0.15890  1.0000
  C   C30       1.0  0.11920  0.66379  0.34110  1.0000
  C   C31       1.0  0.61920  0.83621  0.84110  1.0000
  C   C32       1.0  0.88080  0.33621  0.65890  1.0000
  C   C33       1.0  0.33850  0.21084  0.11270  1.0000
  C   C34       1.0  0.16150  0.71084  0.38730  1.0000
  C   C35       1.0  0.66150  0.78916  0.88730  1.0000
  C   C36       1.0  0.83850  0.28916  0.61270  1.0000
  H   H13       1.0  0.40260  0.23400  0.09840  1.0000
  H   H14       1.0  0.09740  0.73400  0.40160  1.0000
  H   H15       1.0  0.59740  0.76600  0.90160  1.0000
  H   H16       1.0  0.90260  0.26600  0.59840  1.0000
  C   C37       1.0  0.20480  0.22405  0.08760  1.0000
  C   C38       1.0  0.29520  0.72405  0.41240  1.0000
  C   C39       1.0  0.79520  0.77595  0.91240  1.0000
  C   C40       1.0  0.70480  0.27595  0.58760  1.0000
  C   C41       1.0  0.11080  0.18934  0.10760  1.0000
  C   C42       1.0  0.38920  0.68934  0.39240  1.0000
  C   C43       1.0  0.88920  0.81066  0.89240  1.0000
  C   C44       1.0  0.61080  0.31066  0.60760  1.0000
  H   H17       1.0  0.02000  0.19750  0.08960  1.0000
  H   H18       1.0  0.48000  0.69750  0.41040  1.0000
  H   H19       1.0  0.98000  0.80250  0.91040  1.0000
  H   H20       1.0  0.52000  0.30250  0.58960  1.0000
  C   C45       1.0  0.14990  0.14207  0.15450  1.0000
  C   C46       1.0  0.35010  0.64207  0.34550  1.0000
  C   C47       1.0  0.85010  0.85793  0.84550  1.0000
  C   C48       1.0  0.64990  0.35793  0.65450  1.0000
  H   H21       1.0  0.08540  0.11880  0.16760  1.0000
  H   H22       1.0  0.41460  0.61880  0.33240  1.0000
  H   H23       1.0  0.91460  0.88120  0.83240  1.0000
  H   H24       1.0  0.58540  0.38120  0.66760  1.0000
  C   C49       1.0  0.25990  0.10133  0.43490  1.0000
  C   C50       1.0  0.24010  0.60133  0.06510  1.0000
  C   C51       1.0  0.74010  0.89867  0.56510  1.0000
  C   C52       1.0  0.75990  0.39867  0.93490  1.0000
  C   C53       1.0  0.41440  0.92755  0.36410  1.0000
  C   C54       1.0  0.08560  0.42755  0.13590  1.0000
  C   C55       1.0  0.58560  0.07245  0.63590  1.0000
  C   C56       1.0  0.91440  0.57245  0.86410  1.0000
  C   C57       1.0  0.52960  0.15250  0.18490  1.0000
  C   C58       1.0  0.97040  0.65250  0.31510  1.0000
  C   C59       1.0  0.47040  0.84750  0.81510  1.0000
  C   C60       1.0  0.02960  0.34750  0.68490  1.0000
  C   C61       1.0  0.16820  0.27627  0.04510  1.0000
  C   C62       1.0  0.33180  0.77627  0.45490  1.0000
  C   C63       1.0  0.83180  0.72373  0.95490  1.0000
  C   C64       1.0  0.66820  0.22373  0.54510  1.0000
