data_image0
_chemical_formula_structural       Ag2C2H2C2H2C6H2C2H2C2H2C2H2C6H2C4H2C2H2C2H2C2H2C4H2C6H2C2H2N8O8
_chemical_formula_sum              "Ag2 C44 H28 N8 O8"
_cell_length_a       9.8037
_cell_length_b       12.917
_cell_length_c       13.5314
_cell_angle_alpha    87.233
_cell_angle_beta     79.209
_cell_angle_gamma    70.022

_space_group_name_H-M_alt    "P 1"
_space_group_IT_number       1

loop_
  _space_group_symop_operation_xyz
  'x, y, z'

loop_
  _atom_site_type_symbol
  _atom_site_label
  _atom_site_symmetry_multiplicity
  _atom_site_fract_x
  _atom_site_fract_y
  _atom_site_fract_z
  _atom_site_occupancy
  Ag  Ag1       1.0  0.92683  0.98413  0.40136  1.0000
  Ag  Ag2       1.0  0.07317  0.01587  0.59864  1.0000
  C   C1        1.0  0.60890  0.15420  0.41770  1.0000
  C   C2        1.0  0.39110  0.84580  0.58230  1.0000
  H   H1        1.0  0.58210  0.09200  0.43310  1.0000
  H   H2        1.0  0.41790  0.90800  0.56690  1.0000
  C   C3        1.0  0.49870  0.25600  0.42030  1.0000
  C   C4        1.0  0.50130  0.74400  0.57970  1.0000
  H   H3        1.0  0.39970  0.26220  0.43670  1.0000
  H   H4        1.0  0.60030  0.73780  0.56330  1.0000
  C   C5        1.0  0.53880  0.34690  0.39820  1.0000
  C   C6        1.0  0.46120  0.65310  0.60180  1.0000
  C   C7        1.0  0.33800  0.63040  0.36890  1.0000
  C   C8        1.0  0.66200  0.36960  0.63110  1.0000
  C   C9        1.0  0.19430  0.63390  0.37350  1.0000
  C   C10       1.0  0.80570  0.36610  0.62650  1.0000
  H   H5        1.0  0.17070  0.56970  0.37820  1.0000
  H   H6        1.0  0.82930  0.43030  0.62180  1.0000
  C   C11       1.0  0.37200  0.72600  0.36010  1.0000
  C   C12       1.0  0.62800  0.27400  0.63990  1.0000
  H   H7        1.0  0.46860  0.72450  0.35480  1.0000
  H   H8        1.0  0.53140  0.27550  0.64520  1.0000
  C   C13       1.0  0.68720  0.33600  0.37450  1.0000
  C   C14       1.0  0.31280  0.66400  0.62550  1.0000
  H   H9        1.0  0.71630  0.39730  0.35950  1.0000
  H   H10       1.0  0.28370  0.60270  0.64050  1.0000
  C   C15       1.0  0.78980  0.23190  0.37380  1.0000
  C   C16       1.0  0.21020  0.76810  0.62620  1.0000
  H   H11       1.0  0.88950  0.22390  0.35870  1.0000
  H   H12       1.0  0.11050  0.77610  0.64130  1.0000
  C   C17       1.0  0.60230  0.90310  0.77960  1.0000
  C   C18       1.0  0.39770  0.09690  0.22040  1.0000
  C   C19       1.0  0.72750  0.79300  0.75090  1.0000
  C   C20       1.0  0.27250  0.20700  0.24910  1.0000
  C   C21       1.0  0.75240  0.71130  0.82100  1.0000
  C   C22       1.0  0.24760  0.28870  0.17900  1.0000
  H   H13       1.0  0.69300  0.72460  0.88450  1.0000
  H   H14       1.0  0.30700  0.27540  0.11550  1.0000
  C   C23       1.0  0.86560  0.60720  0.80010  1.0000
  C   C24       1.0  0.13440  0.39280  0.19990  1.0000
  C   C25       1.0  0.89810  0.52610  0.87420  1.0000
  C   C26       1.0  0.10190  0.47390  0.12580  1.0000
  H   H15       1.0  0.84240  0.53890  0.93880  1.0000
  H   H16       1.0  0.15760  0.46110  0.06120  1.0000
  C   C27       1.0  0.01070  0.42910  0.85100  1.0000
  C   C28       1.0  0.98930  0.57090  0.14900  1.0000
  H   H17       1.0  0.03050  0.37550  0.89970  1.0000
  H   H18       1.0  0.96950  0.62450  0.10030  1.0000
  C   C29       1.0  0.09650  0.40950  0.75510  1.0000
  C   C30       1.0  0.90350  0.59050  0.24490  1.0000
  H   H19       1.0  0.17440  0.34330  0.74100  1.0000
  H   H20       1.0  0.82560  0.65670  0.25900  1.0000
  C   C31       1.0  0.06850  0.48560  0.68120  1.0000
  C   C32       1.0  0.93150  0.51440  0.31880  1.0000
  H   H21       1.0  0.12580  0.47120  0.61710  1.0000
  H   H22       1.0  0.87420  0.52880  0.38290  1.0000
  C   C33       1.0  0.95100  0.58700  0.70360  1.0000
  C   C34       1.0  0.04900  0.41300  0.29640  1.0000
  C   C35       1.0  0.92030  0.67140  0.63040  1.0000
  C   C36       1.0  0.07970  0.32860  0.36960  1.0000
  H   H23       1.0  0.97430  0.65760  0.56530  1.0000
  H   H24       1.0  0.02570  0.34240  0.43470  1.0000
  C   C37       1.0  0.81320  0.77220  0.65390  1.0000
  C   C38       1.0  0.18680  0.22780  0.34610  1.0000
  C   C39       1.0  0.80740  0.85950  0.57210  1.0000
  C   C40       1.0  0.19260  0.14050  0.42790  1.0000
  C   C41       1.0  0.08720  0.73600  0.37080  1.0000
  C   C42       1.0  0.91280  0.26400  0.62920  1.0000
  H   H25       1.0  0.99060  0.73900  0.37290  1.0000
  H   H26       1.0  0.00940  0.26100  0.62710  1.0000
  C   C43       1.0  0.25460  0.82560  0.35960  1.0000
  C   C44       1.0  0.74540  0.17440  0.64040  1.0000
  H   H27       1.0  0.27500  0.89110  0.35500  1.0000
  H   H28       1.0  0.72500  0.10890  0.64500  1.0000
  N   N1        1.0  0.75260  0.14170  0.39400  1.0000
  N   N2        1.0  0.24740  0.85830  0.60600  1.0000
  N   N3        1.0  0.11460  0.83050  0.36550  1.0000
  N   N4        1.0  0.88540  0.16950  0.63450  1.0000
  N   N5        1.0  0.45990  0.52960  0.36950  1.0000
  N   N6        1.0  0.54010  0.47040  0.63050  1.0000
  N   N7        1.0  0.41990  0.45020  0.39900  1.0000
  N   N8        1.0  0.58010  0.54980  0.60100  1.0000
  O   O1        1.0  0.87320  0.92406  0.58270  1.0000
  O   O2        1.0  0.12680  0.07594  0.41730  1.0000
  O   O3        1.0  0.75340  0.85100  0.49860  1.0000
  O   O4        1.0  0.24660  0.14900  0.50140  1.0000
  O   O5        1.0  0.56280  0.96376  0.71078  1.0000
  O   O6        1.0  0.43720  0.03624  0.28922  1.0000
  O   O7        1.0  0.54740  0.92003  0.87100  1.0000
  O   O8        1.0  0.45260  0.07997  0.12900  1.0000
