data_image0
_chemical_formula_structural       C4H2C2H2C2H2C2H2C6H2C2H2C4H2C2H2Fe2S8C4H2C2H2C2H2C2H2C6H2C2H2C2H2C2H2C2Fe2S8
_chemical_formula_sum              "C48 H32 Fe4 S16"
_cell_length_a       10.9902
_cell_length_b       13.5451
_cell_length_c       14.4191
_cell_angle_alpha    88.739
_cell_angle_beta     77.11
_cell_angle_gamma    88.337

_space_group_name_H-M_alt    "P 1"
_space_group_IT_number       1

loop_
  _space_group_symop_operation_xyz
  'x, y, z'

loop_
  _atom_site_type_symbol
  _atom_site_label
  _atom_site_symmetry_multiplicity
  _atom_site_fract_x
  _atom_site_fract_y
  _atom_site_fract_z
  _atom_site_occupancy
  C   C1        1.0  0.34300  0.75525  0.90296  1.0000
  C   C2        1.0  0.65700  0.24475  0.09704  1.0000
  C   C3        1.0  0.26480  0.83728  0.92966  1.0000
  C   C4        1.0  0.73520  0.16272  0.07034  1.0000
  H   H1        1.0  0.19480  0.83210  0.98160  1.0000
  H   H2        1.0  0.80520  0.16790  0.01840  1.0000
  C   C5        1.0  0.28860  0.92647  0.88086  1.0000
  C   C6        1.0  0.71140  0.07353  0.11914  1.0000
  H   H3        1.0  0.23550  0.98240  0.90000  1.0000
  H   H4        1.0  0.76450  0.01760  0.10000  1.0000
  C   C7        1.0  0.38990  0.93422  0.80407  1.0000
  C   C8        1.0  0.61010  0.06578  0.19593  1.0000
  H   H5        1.0  0.40430  0.99470  0.76930  1.0000
  H   H6        1.0  0.59570  0.00530  0.23070  1.0000
  C   C9        1.0  0.46950  0.85399  0.77827  1.0000
  C   C10       1.0  0.53050  0.14601  0.22173  1.0000
  H   H7        1.0  0.53950  0.85970  0.72630  1.0000
  H   H8        1.0  0.46050  0.14030  0.27370  1.0000
  C   C11       1.0  0.44790  0.76436  0.82820  1.0000
  C   C12       1.0  0.55210  0.23564  0.17180  1.0000
  C   C13       1.0  0.45150  0.31073  0.93665  1.0000
  C   C14       1.0  0.54850  0.68927  0.06335  1.0000
  C   C15       1.0  0.41420  0.21916  0.97772  1.0000
  C   C16       1.0  0.58580  0.78084  0.02228  1.0000
  H   H9        1.0  0.34980  0.21580  0.03390  1.0000
  H   H10       1.0  0.65020  0.78420  0.96610  1.0000
  C   C17       1.0  0.47080  0.13338  0.93677  1.0000
  C   C18       1.0  0.52920  0.86662  0.06323  1.0000
  H   H11       1.0  0.44470  0.07090  0.96400  1.0000
  H   H12       1.0  0.55530  0.92910  0.03600  1.0000
  C   C19       1.0  0.54720  0.31671  0.85516  1.0000
  C   C20       1.0  0.45280  0.68329  0.14484  1.0000
  C   C21       1.0  0.60450  0.22984  0.81540  1.0000
  C   C22       1.0  0.39550  0.77016  0.18460  1.0000
  H   H13       1.0  0.67050  0.23280  0.76030  1.0000
  H   H14       1.0  0.32950  0.76720  0.23970  1.0000
  C   C23       1.0  0.56610  0.13922  0.85562  1.0000
  C   C24       1.0  0.43390  0.86078  0.14438  1.0000
  H   H15       1.0  0.60530  0.08040  0.82740  1.0000
  H   H16       1.0  0.39470  0.91960  0.17260  1.0000
  Fe  Fe1       1.0  0.48134  0.54447  0.90520  1.0000
  Fe  Fe2       1.0  0.51866  0.45553  0.09480  1.0000
  S   S1        1.0  0.31083  0.63863  0.95906  1.0000
  S   S2        1.0  0.68917  0.36137  0.04094  1.0000
  S   S3        1.0  0.55016  0.66211  0.79889  1.0000
  S   S4        1.0  0.44984  0.33789  0.20111  1.0000
  S   S5        1.0  0.59499  0.43387  0.80700  1.0000
  S   S6        1.0  0.40501  0.56613  0.19300  1.0000
  S   S7        1.0  0.37975  0.42055  0.98929  1.0000
  S   S8        1.0  0.62025  0.57945  0.01071  1.0000
  C   C25       1.0  0.85380  0.83417  0.28943  1.0000
  C   C26       1.0  0.14620  0.16583  0.71057  1.0000
  C   C27       1.0  0.79050  0.81668  0.21733  1.0000
  C   C28       1.0  0.20950  0.18332  0.78267  1.0000
  H   H17       1.0  0.70360  0.83180  0.22730  1.0000
  H   H18       1.0  0.29640  0.16820  0.77270  1.0000
  C   C29       1.0  0.85350  0.77766  0.13211  1.0000
  C   C30       1.0  0.14650  0.22234  0.86789  1.0000
  H   H19       1.0  0.80990  0.76570  0.08360  1.0000
  H   H20       1.0  0.19010  0.23430  0.91640  1.0000
  C   C31       1.0  0.98070  0.75566  0.11680  1.0000
  C   C32       1.0  0.01930  0.24434  0.88320  1.0000
  H   H21       1.0  0.02380  0.72860  0.05800  1.0000
  H   H22       1.0  0.97620  0.27140  0.94200  1.0000
  C   C33       1.0  0.04460  0.77316  0.18698  1.0000
  C   C34       1.0  0.95540  0.22684  0.81302  1.0000
  H   H23       1.0  0.13170  0.75870  0.17590  1.0000
  H   H24       1.0  0.86830  0.24130  0.82410  1.0000
  C   C35       1.0  0.98180  0.81192  0.27402  1.0000
  C   C36       1.0  0.01820  0.18808  0.72598  1.0000
  C   C37       1.0  0.97850  0.92181  0.68698  1.0000
  C   C38       1.0  0.02150  0.07819  0.31302  1.0000
  C   C39       1.0  0.04080  0.93224  0.76056  1.0000
  C   C40       1.0  0.95920  0.06776  0.23944  1.0000
  H   H25       1.0  0.12950  0.93220  0.74740  1.0000
  H   H26       1.0  0.87050  0.06780  0.25260  1.0000
  C   C41       1.0  0.97230  0.94257  0.85266  1.0000
  C   C42       1.0  0.02770  0.05743  0.14734  1.0000
  H   H27       1.0  0.01390  0.95210  0.90280  1.0000
  H   H28       1.0  0.98610  0.04790  0.09720  1.0000
  C   C43       1.0  0.84310  0.93906  0.87241  1.0000
  C   C44       1.0  0.15690  0.06094  0.12759  1.0000
  H   H29       1.0  0.79660  0.94510  0.93610  1.0000
  H   H30       1.0  0.20340  0.05490  0.06390  1.0000
  C   C45       1.0  0.78160  0.92680  0.79981  1.0000
  C   C46       1.0  0.21840  0.07320  0.20019  1.0000
  H   H31       1.0  0.69320  0.92260  0.81400  1.0000
  H   H32       1.0  0.30680  0.07740  0.18600  1.0000
  C   C47       1.0  0.84870  0.92056  0.70572  1.0000
  C   C48       1.0  0.15130  0.07944  0.29428  1.0000
  Fe  Fe3       1.0  0.92108  0.91227  0.47861  1.0000
  Fe  Fe4       1.0  0.07892  0.08773  0.52139  1.0000
  S   S9        1.0  0.77391  0.87927  0.40053  1.0000
  S   S10       1.0  0.22609  0.12073  0.59947  1.0000
  S   S11       1.0  0.06122  0.83235  0.36569  1.0000
  S   S12       1.0  0.93878  0.16765  0.63431  1.0000
  S   S13       1.0  0.06357  0.91152  0.56764  1.0000
  S   S14       1.0  0.93643  0.08848  0.43236  1.0000
  S   S15       1.0  0.77195  0.91640  0.61064  1.0000
  S   S16       1.0  0.22805  0.08360  0.38936  1.0000
