data_image0
_chemical_formula_structural       U8O64N8C8H16C16H16C16H16C8
_chemical_formula_sum              "U8 O64 N8 C48 H48"
_cell_length_a       19.5372
_cell_length_b       13.2256
_cell_length_c       11.18
_cell_angle_alpha    90
_cell_angle_beta     90
_cell_angle_gamma    90

_space_group_name_H-M_alt    "P 1"
_space_group_IT_number       1

loop_
  _space_group_symop_operation_xyz
  'x, y, z'

loop_
  _atom_site_type_symbol
  _atom_site_label
  _atom_site_symmetry_multiplicity
  _atom_site_fract_x
  _atom_site_fract_y
  _atom_site_fract_z
  _atom_site_occupancy
  U   U1        1.0  0.72615  0.63402  0.79362  1.0000
  U   U2        1.0  0.77385  0.86598  0.29362  1.0000
  U   U3        1.0  0.27385  0.63402  0.70638  1.0000
  U   U4        1.0  0.22615  0.86598  0.20638  1.0000
  U   U5        1.0  0.27385  0.36598  0.20638  1.0000
  U   U6        1.0  0.22615  0.13402  0.70638  1.0000
  U   U7        1.0  0.72615  0.36598  0.29362  1.0000
  U   U8        1.0  0.77385  0.13402  0.79362  1.0000
  O   O1        1.0  0.77230  0.61210  0.65960  1.0000
  O   O2        1.0  0.72770  0.88790  0.15960  1.0000
  O   O3        1.0  0.22770  0.61210  0.84040  1.0000
  O   O4        1.0  0.27230  0.88790  0.34040  1.0000
  O   O5        1.0  0.22770  0.38790  0.34040  1.0000
  O   O6        1.0  0.27230  0.11210  0.84040  1.0000
  O   O7        1.0  0.77230  0.38790  0.15960  1.0000
  O   O8        1.0  0.72770  0.11210  0.65960  1.0000
  O   O9        1.0  0.67920  0.66210  0.92530  1.0000
  O   O10       1.0  0.82080  0.83790  0.42530  1.0000
  O   O11       1.0  0.32080  0.66210  0.57470  1.0000
  O   O12       1.0  0.17920  0.83790  0.07470  1.0000
  O   O13       1.0  0.32080  0.33790  0.07470  1.0000
  O   O14       1.0  0.17920  0.16210  0.57470  1.0000
  O   O15       1.0  0.67920  0.33790  0.42530  1.0000
  O   O16       1.0  0.82080  0.16210  0.92530  1.0000
  O   O17       1.0  0.78440  0.79240  0.80870  1.0000
  O   O18       1.0  0.71560  0.70760  0.30870  1.0000
  O   O19       1.0  0.21560  0.79240  0.69130  1.0000
  O   O20       1.0  0.28440  0.70760  0.19130  1.0000
  O   O21       1.0  0.21560  0.20760  0.19130  1.0000
  O   O22       1.0  0.28440  0.29240  0.69130  1.0000
  O   O23       1.0  0.78440  0.20760  0.30870  1.0000
  O   O24       1.0  0.71560  0.29240  0.80870  1.0000
  O   O25       1.0  0.78640  0.95900  0.82810  1.0000
  O   O26       1.0  0.71360  0.54100  0.32810  1.0000
  O   O27       1.0  0.21360  0.95900  0.67190  1.0000
  O   O28       1.0  0.28640  0.54100  0.17190  1.0000
  O   O29       1.0  0.21360  0.04100  0.17190  1.0000
  O   O30       1.0  0.28640  0.45900  0.67190  1.0000
  O   O31       1.0  0.78640  0.04100  0.32810  1.0000
  O   O32       1.0  0.71360  0.45900  0.82810  1.0000
  O   O33       1.0  0.62540  0.59700  0.69210  1.0000
  O   O34       1.0  0.87460  0.90300  0.19210  1.0000
  O   O35       1.0  0.37460  0.59700  0.80790  1.0000
  O   O36       1.0  0.12540  0.90300  0.30790  1.0000
  O   O37       1.0  0.37460  0.40300  0.30790  1.0000
  O   O38       1.0  0.12540  0.09700  0.80790  1.0000
  O   O39       1.0  0.62540  0.40300  0.19210  1.0000
  O   O40       1.0  0.87460  0.09700  0.69210  1.0000
  O   O41       1.0  0.52170  0.63360  0.62150  1.0000
  O   O42       1.0  0.97830  0.86640  0.12150  1.0000
  O   O43       1.0  0.47830  0.63360  0.87850  1.0000
  O   O44       1.0  0.02170  0.86640  0.37850  1.0000
  O   O45       1.0  0.47830  0.36640  0.37850  1.0000
  O   O46       1.0  0.02170  0.13360  0.87850  1.0000
  O   O47       1.0  0.52170  0.36640  0.12150  1.0000
  O   O48       1.0  0.97830  0.13360  0.62150  1.0000
  O   O49       1.0  0.67710  0.90150  0.40510  1.0000
  O   O50       1.0  0.82290  0.59850  0.90510  1.0000
  O   O51       1.0  0.32290  0.90150  0.09490  1.0000
  O   O52       1.0  0.17710  0.59850  0.59490  1.0000
  O   O53       1.0  0.32290  0.09850  0.59490  1.0000
  O   O54       1.0  0.17710  0.40150  0.09490  1.0000
  O   O55       1.0  0.67710  0.09850  0.90510  1.0000
  O   O56       1.0  0.82290  0.40150  0.40510  1.0000
  O   O57       1.0  0.61000  0.94950  0.55470  1.0000
  O   O58       1.0  0.89000  0.55050  0.05470  1.0000
  O   O59       1.0  0.39000  0.94950  0.94530  1.0000
  O   O60       1.0  0.11000  0.55050  0.44530  1.0000
  O   O61       1.0  0.39000  0.05050  0.44530  1.0000
  O   O62       1.0  0.11000  0.44950  0.94530  1.0000
  O   O63       1.0  0.61000  0.05050  0.05470  1.0000
  O   O64       1.0  0.89000  0.44950  0.55470  1.0000
  N   N1        1.0  0.66050  0.79100  0.70710  1.0000
  N   N2        1.0  0.83950  0.70900  0.20710  1.0000
  N   N3        1.0  0.33950  0.79100  0.79290  1.0000
  N   N4        1.0  0.16050  0.70900  0.29290  1.0000
  N   N5        1.0  0.33950  0.20900  0.29290  1.0000
  N   N6        1.0  0.16050  0.29100  0.79290  1.0000
  N   N7        1.0  0.66050  0.20900  0.20710  1.0000
  N   N8        1.0  0.83950  0.29100  0.70710  1.0000
  C   C1        1.0  0.67870  0.88000  0.78210  1.0000
  C   C2        1.0  0.82130  0.62000  0.28210  1.0000
  C   C3        1.0  0.32130  0.88000  0.71790  1.0000
  C   C4        1.0  0.17870  0.62000  0.21790  1.0000
  C   C5        1.0  0.32130  0.12000  0.21790  1.0000
  C   C6        1.0  0.17870  0.38000  0.71790  1.0000
  C   C7        1.0  0.67870  0.12000  0.28210  1.0000
  C   C8        1.0  0.82130  0.38000  0.78210  1.0000
  H   H1        1.0  0.65304  0.87780  0.85840  1.0000
  H   H2        1.0  0.84696  0.62220  0.35840  1.0000
  H   H3        1.0  0.34696  0.87780  0.64160  1.0000
  H   H4        1.0  0.15304  0.62220  0.14160  1.0000
  H   H5        1.0  0.34696  0.12220  0.14160  1.0000
  H   H6        1.0  0.15304  0.37780  0.64160  1.0000
  H   H7        1.0  0.65304  0.12220  0.35840  1.0000
  H   H8        1.0  0.84696  0.37780  0.85840  1.0000
  H   H9        1.0  0.66649  0.94321  0.73977  1.0000
  H   H10       1.0  0.83351  0.55679  0.23977  1.0000
  H   H11       1.0  0.33351  0.94321  0.76023  1.0000
  H   H12       1.0  0.16649  0.55679  0.26023  1.0000
  H   H13       1.0  0.33351  0.05679  0.26023  1.0000
  H   H14       1.0  0.16649  0.44321  0.76023  1.0000
  H   H15       1.0  0.66649  0.05679  0.23977  1.0000
  H   H16       1.0  0.83351  0.44321  0.73977  1.0000
  C   C9        1.0  0.75520  0.87780  0.80690  1.0000
  C   C10       1.0  0.74480  0.62220  0.30690  1.0000
  C   C11       1.0  0.24480  0.87780  0.69310  1.0000
  C   C12       1.0  0.25520  0.62220  0.19310  1.0000
  C   C13       1.0  0.24480  0.12220  0.19310  1.0000
  C   C14       1.0  0.25520  0.37780  0.69310  1.0000
  C   C15       1.0  0.75520  0.12220  0.30690  1.0000
  C   C16       1.0  0.74480  0.37780  0.80690  1.0000
  C   C17       1.0  0.58690  0.76640  0.71130  1.0000
  C   C18       1.0  0.91310  0.73360  0.21130  1.0000
  C   C19       1.0  0.41310  0.76640  0.78870  1.0000
  C   C20       1.0  0.08690  0.73360  0.28870  1.0000
  C   C21       1.0  0.41310  0.23360  0.28870  1.0000
  C   C22       1.0  0.08690  0.26640  0.78870  1.0000
  C   C23       1.0  0.58690  0.23360  0.21130  1.0000
  C   C24       1.0  0.91310  0.26640  0.71130  1.0000
  H   H17       1.0  0.56116  0.81351  0.65928  1.0000
  H   H18       1.0  0.93884  0.68649  0.15928  1.0000
  H   H19       1.0  0.43884  0.81351  0.84072  1.0000
  H   H20       1.0  0.06116  0.68649  0.34072  1.0000
  H   H21       1.0  0.43884  0.18649  0.34072  1.0000
  H   H22       1.0  0.06116  0.31351  0.84072  1.0000
  H   H23       1.0  0.56116  0.18649  0.15928  1.0000
  H   H24       1.0  0.93884  0.31351  0.65928  1.0000
  H   H25       1.0  0.56973  0.77418  0.79415  1.0000
  H   H26       1.0  0.93027  0.72582  0.29415  1.0000
  H   H27       1.0  0.43027  0.77418  0.70585  1.0000
  H   H28       1.0  0.06973  0.72582  0.20585  1.0000
  H   H29       1.0  0.43027  0.22582  0.20585  1.0000
  H   H30       1.0  0.06973  0.27418  0.70585  1.0000
  H   H31       1.0  0.56973  0.22582  0.29415  1.0000
  H   H32       1.0  0.93027  0.27418  0.79415  1.0000
  C   C25       1.0  0.57570  0.65830  0.66940  1.0000
  C   C26       1.0  0.92430  0.84170  0.16940  1.0000
  C   C27       1.0  0.42430  0.65830  0.83060  1.0000
  C   C28       1.0  0.07570  0.84170  0.33060  1.0000
  C   C29       1.0  0.42430  0.34170  0.33060  1.0000
  C   C30       1.0  0.07570  0.15830  0.83060  1.0000
  C   C31       1.0  0.57570  0.34170  0.16940  1.0000
  C   C32       1.0  0.92430  0.15830  0.66940  1.0000
  C   C33       1.0  0.68460  0.80510  0.58310  1.0000
  C   C34       1.0  0.81540  0.69490  0.08310  1.0000
  C   C35       1.0  0.31540  0.80510  0.91690  1.0000
  C   C36       1.0  0.18460  0.69490  0.41690  1.0000
  C   C37       1.0  0.31540  0.19490  0.41690  1.0000
  C   C38       1.0  0.18460  0.30510  0.91690  1.0000
  C   C39       1.0  0.68460  0.19490  0.08310  1.0000
  C   C40       1.0  0.81540  0.30510  0.58310  1.0000
  H   H33       1.0  0.67554  0.74190  0.53845  1.0000
  H   H34       1.0  0.82446  0.75810  0.03845  1.0000
  H   H35       1.0  0.32446  0.74190  0.96155  1.0000
  H   H36       1.0  0.17554  0.75810  0.46155  1.0000
  H   H37       1.0  0.32446  0.25810  0.46155  1.0000
  H   H38       1.0  0.17554  0.24190  0.96155  1.0000
  H   H39       1.0  0.67554  0.25810  0.03845  1.0000
  H   H40       1.0  0.82446  0.24190  0.53845  1.0000
  H   H41       1.0  0.73484  0.81467  0.58526  1.0000
  H   H42       1.0  0.76516  0.68533  0.08526  1.0000
  H   H43       1.0  0.26516  0.81467  0.91474  1.0000
  H   H44       1.0  0.23484  0.68533  0.41474  1.0000
  H   H45       1.0  0.26516  0.18533  0.41474  1.0000
  H   H46       1.0  0.23484  0.31467  0.91474  1.0000
  H   H47       1.0  0.73484  0.18533  0.08526  1.0000
  H   H48       1.0  0.76516  0.31467  0.58526  1.0000
  C   C41       1.0  0.65330  0.89340  0.51210  1.0000
  C   C42       1.0  0.84670  0.60660  0.01210  1.0000
  C   C43       1.0  0.34670  0.89340  0.98790  1.0000
  C   C44       1.0  0.15330  0.60660  0.48790  1.0000
  C   C45       1.0  0.34670  0.10660  0.48790  1.0000
  C   C46       1.0  0.15330  0.39340  0.98790  1.0000
  C   C47       1.0  0.65330  0.10660  0.01210  1.0000
  C   C48       1.0  0.84670  0.39340  0.51210  1.0000
