data_image0
_chemical_formula_structural       Pb8O36N36C4H2C2H4C2H4C2H4C2H4C8H4C2H4C2H2C2H4C2H4C6H2C2H4C2H4C2H4C2H4C8H4C2H4C2H2C2H4C2H4C4H4C2H4C2H2C2H4C2H4C4H4C2H4C2H2C2H4C2H4C6H2C2H4C2H4C2H4C2H4C8H4C2H4C2H2C2H4C2H4C4H4C2H4C2H2C2H4C2H4C2
_chemical_formula_sum              "Pb8 O36 N36 C126 H162"
_cell_length_a       16.2132
_cell_length_b       18.0795
_cell_length_c       18.3043
_cell_angle_alpha    110.72
_cell_angle_beta     113.298
_cell_angle_gamma    91.837

_space_group_name_H-M_alt    "P 1"
_space_group_IT_number       1

loop_
  _space_group_symop_operation_xyz
  'x, y, z'

loop_
  _atom_site_type_symbol
  _atom_site_label
  _atom_site_symmetry_multiplicity
  _atom_site_fract_x
  _atom_site_fract_y
  _atom_site_fract_z
  _atom_site_occupancy
  Pb  Pb1       1.0  0.14829  0.31629  0.09780  1.0000
  Pb  Pb2       1.0  0.85171  0.68371  0.90220  1.0000
  Pb  Pb3       1.0  0.02570  0.60585  0.08996  1.0000
  Pb  Pb4       1.0  0.97430  0.39415  0.91004  1.0000
  Pb  Pb5       1.0  0.87265  0.94151  0.90876  1.0000
  Pb  Pb6       1.0  0.12735  0.05849  0.09124  1.0000
  Pb  Pb7       1.0  0.93193  0.15173  0.87384  1.0000
  Pb  Pb8       1.0  0.06807  0.84827  0.12616  1.0000
  O   O1        1.0  0.07430  0.53750  0.92280  1.0000
  O   O2        1.0  0.92570  0.46250  0.07720  1.0000
  O   O3        1.0  0.05130  0.65930  0.98520  1.0000
  O   O4        1.0  0.94870  0.34070  0.01480  1.0000
  O   O5        1.0  0.03300  0.04490  0.92630  1.0000
  O   O6        1.0  0.96700  0.95510  0.07370  1.0000
  O   O7        1.0  0.02280  0.07440  0.81610  1.0000
  O   O8        1.0  0.97720  0.92560  0.18390  1.0000
  O   O9        1.0  0.23370  0.36940  0.25380  1.0000
  O   O10       1.0  0.76630  0.63060  0.74620  1.0000
  O   O11       1.0  0.13630  0.44720  0.22750  1.0000
  O   O12       1.0  0.86370  0.55280  0.77250  1.0000
  O   O13       1.0  0.23940  0.42100  0.09740  1.0000
  O   O14       1.0  0.76060  0.57900  0.90260  1.0000
  O   O15       1.0  0.11370  0.46690  0.05610  1.0000
  O   O16       1.0  0.88630  0.53310  0.94390  1.0000
  O   O17       1.0  0.70920  0.72690  0.90090  1.0000
  O   O18       1.0  0.29080  0.27310  0.09910  1.0000
  O   O19       1.0  0.78490  0.82070  0.89230  1.0000
  O   O20       1.0  0.21510  0.17930  0.10770  1.0000
  O   O21       1.0  0.77520  0.88460  0.75060  1.0000
  O   O22       1.0  0.22480  0.11540  0.24940  1.0000
  O   O23       1.0  0.83270  0.01190  0.79720  1.0000
  O   O24       1.0  0.16730  0.98810  0.20280  1.0000
  O   O25       1.0  0.74770  0.00070  0.92010  1.0000
  O   O26       1.0  0.25230  0.99930  0.07990  1.0000
  O   O27       1.0  0.84270  0.11650  0.97070  1.0000
  O   O28       1.0  0.15730  0.88350  0.02930  1.0000
  O   O29       1.0  0.13800  0.85490  0.26680  1.0000
  O   O30       1.0  0.86200  0.14510  0.73320  1.0000
  O   O31       1.0  0.14990  0.73280  0.19610  1.0000
  O   O32       1.0  0.85010  0.26720  0.80390  1.0000
  O   O33       1.0  0.91500  0.65370  0.15070  1.0000
  O   O34       1.0  0.08500  0.34630  0.84930  1.0000
  O   O35       1.0  0.93840  0.72440  0.08310  1.0000
  O   O36       1.0  0.06160  0.27560  0.91690  1.0000
  N   N1        1.0  0.19570  0.66490  0.78210  1.0000
  N   N2        1.0  0.80430  0.33510  0.21790  1.0000
  N   N3        1.0  0.21680  0.62850  0.65740  1.0000
  N   N4        1.0  0.78320  0.37150  0.34260  1.0000
  N   N5        1.0  0.24700  0.59490  0.53810  1.0000
  N   N6        1.0  0.75300  0.40510  0.46190  1.0000
  N   N7        1.0  0.33990  0.70530  0.65920  1.0000
  N   N8        1.0  0.66010  0.29470  0.34080  1.0000
  N   N9        1.0  0.31650  0.74170  0.78690  1.0000
  N   N10       1.0  0.68350  0.25830  0.21310  1.0000
  N   N11       1.0  0.43370  0.81430  0.78440  1.0000
  N   N12       1.0  0.56630  0.18570  0.21560  1.0000
  N   N13       1.0  0.29540  0.86490  0.53890  1.0000
  N   N14       1.0  0.70460  0.13510  0.46110  1.0000
  N   N15       1.0  0.39430  0.97320  0.66190  1.0000
  N   N16       1.0  0.60570  0.02680  0.33810  1.0000
  N   N17       1.0  0.26640  0.90130  0.65840  1.0000
  N   N18       1.0  0.73360  0.09870  0.34160  1.0000
  N   N19       1.0  0.37060  0.00760  0.79020  1.0000
  N   N20       1.0  0.62940  0.99240  0.20980  1.0000
  N   N21       1.0  0.25000  0.93240  0.78390  1.0000
  N   N22       1.0  0.75000  0.06760  0.21610  1.0000
  N   N23       1.0  0.48620  0.08370  0.78780  1.0000
  N   N24       1.0  0.51380  0.91630  0.21220  1.0000
  N   N25       1.0  0.69290  0.77870  0.20860  1.0000
  N   N26       1.0  0.30710  0.22130  0.79140  1.0000
  N   N27       1.0  0.55960  0.72200  0.20290  1.0000
  N   N28       1.0  0.44040  0.27800  0.79710  1.0000
  N   N29       1.0  0.53980  0.76560  0.33350  1.0000
  N   N30       1.0  0.46020  0.23440  0.66650  1.0000
  N   N31       1.0  0.67810  0.81920  0.33580  1.0000
  N   N32       1.0  0.32190  0.18080  0.66420  1.0000
  N   N33       1.0  0.42930  0.67130  0.20430  1.0000
  N   N34       1.0  0.57070  0.32870  0.79570  1.0000
  N   N35       1.0  0.65620  0.85820  0.45940  1.0000
  N   N36       1.0  0.34380  0.14180  0.54060  1.0000
  C   C1        1.0  0.06840  0.60860  0.92850  1.0000
  C   C2        1.0  0.93160  0.39140  0.07150  1.0000
  C   C3        1.0  0.09470  0.63560  0.87100  1.0000
  C   C4        1.0  0.90530  0.36440  0.12900  1.0000
  H   H1        1.0  0.05101  0.66884  0.85253  1.0000
  H   H2        1.0  0.94899  0.33116  0.14747  1.0000
  C   C5        1.0  0.08860  0.57140  0.78870  1.0000
  C   C6        1.0  0.91140  0.42860  0.21130  1.0000
  H   H3        1.0  0.13268  0.53778  0.80295  1.0000
  H   H4        1.0  0.86732  0.46222  0.19705  1.0000
  H   H5        1.0  0.02783  0.53734  0.75634  1.0000
  H   H6        1.0  0.97217  0.46266  0.24366  1.0000
  C   C7        1.0  0.10720  0.60820  0.73370  1.0000
  C   C8        1.0  0.89280  0.39180  0.26630  1.0000
  H   H7        1.0  0.10708  0.56578  0.68317  1.0000
  H   H8        1.0  0.89292  0.43422  0.31683  1.0000
  H   H9        1.0  0.05872  0.63639  0.71368  1.0000
  H   H10       1.0  0.94128  0.36361  0.28632  1.0000
  C   C9        1.0  0.20790  0.72580  0.86490  1.0000
  C   C10       1.0  0.79210  0.27420  0.13510  1.0000
  H   H11       1.0  0.16797  0.76350  0.85454  1.0000
  H   H12       1.0  0.83203  0.23650  0.14546  1.0000
  H   H13       1.0  0.27065  0.75579  0.89657  1.0000
  H   H14       1.0  0.72935  0.24421  0.10343  1.0000
  C   C11       1.0  0.18710  0.68990  0.91820  1.0000
  C   C12       1.0  0.81290  0.31010  0.08180  1.0000
  H   H15       1.0  0.19024  0.73282  0.96990  1.0000
  H   H16       1.0  0.80976  0.26718  0.03010  1.0000
  H   H17       1.0  0.23346  0.65926  0.93651  1.0000
  H   H18       1.0  0.76654  0.34074  0.06349  1.0000
  C   C13       1.0  0.24450  0.67930  0.74060  1.0000
  C   C14       1.0  0.75550  0.32070  0.25940  1.0000
  C   C15       1.0  0.27000  0.64560  0.62230  1.0000
  C   C16       1.0  0.73000  0.35440  0.37770  1.0000
  C   C17       1.0  0.36050  0.75190  0.74220  1.0000
  C   C18       1.0  0.63950  0.24810  0.25780  1.0000
  C   C19       1.0  0.19160  0.51620  0.50360  1.0000
  C   C20       1.0  0.80840  0.48380  0.49640  1.0000
  H   H19       1.0  0.14080  0.52144  0.51915  1.0000
  H   H20       1.0  0.85920  0.47856  0.48085  1.0000
  H   H21       1.0  0.22813  0.48336  0.53025  1.0000
  H   H22       1.0  0.77187  0.51664  0.46975  1.0000
  C   C21       1.0  0.15380  0.47300  0.40560  1.0000
  C   C22       1.0  0.84620  0.52700  0.59440  1.0000
  H   H23       1.0  0.10942  0.50091  0.37811  1.0000
  H   H24       1.0  0.89058  0.49909  0.62189  1.0000
  H   H25       1.0  0.12267  0.41849  0.38729  1.0000
  H   H26       1.0  0.87733  0.58151  0.61271  1.0000
  C   C23       1.0  0.23010  0.47010  0.37650  1.0000
  C   C24       1.0  0.76990  0.52990  0.62350  1.0000
  H   H27       1.0  0.27494  0.44269  0.40547  1.0000
  H   H28       1.0  0.72506  0.55731  0.59453  1.0000
  C   C25       1.0  0.27610  0.55700  0.40800  1.0000
  C   C26       1.0  0.72390  0.44300  0.59200  1.0000
  H   H29       1.0  0.32443  0.55839  0.38966  1.0000
  H   H30       1.0  0.67557  0.44161  0.61034  1.0000
  H   H31       1.0  0.23159  0.58583  0.38238  1.0000
  H   H32       1.0  0.76841  0.41417  0.61762  1.0000
  C   C27       1.0  0.31610  0.59810  0.50600  1.0000
  C   C28       1.0  0.68390  0.40190  0.49400  1.0000
  H   H33       1.0  0.36449  0.57207  0.53131  1.0000
  H   H34       1.0  0.63551  0.42793  0.46869  1.0000
  H   H35       1.0  0.34310  0.65402  0.52453  1.0000
  H   H36       1.0  0.65690  0.34598  0.47547  1.0000
  C   C29       1.0  0.19490  0.42510  0.28040  1.0000
  C   C30       1.0  0.80510  0.57490  0.71960  1.0000
  C   C31       1.0  0.19910  0.47550  0.08570  1.0000
  C   C32       1.0  0.80090  0.52450  0.91430  1.0000
  C   C33       1.0  0.25630  0.55750  0.11360  1.0000
  C   C34       1.0  0.74370  0.44250  0.88640  1.0000
  H   H37       1.0  0.21516  0.59117  0.09197  1.0000
  H   H38       1.0  0.78484  0.40883  0.90803  1.0000
  C   C35       1.0  0.32760  0.55060  0.07700  1.0000
  C   C36       1.0  0.67240  0.44940  0.92300  1.0000
  H   H39       1.0  0.36579  0.51380  0.09387  1.0000
  H   H40       1.0  0.63421  0.48620  0.90613  1.0000
  H   H41       1.0  0.29648  0.52869  0.01413  1.0000
  H   H42       1.0  0.70352  0.47131  0.98587  1.0000
  C   C37       1.0  0.38670  0.63170  0.11010  1.0000
  C   C38       1.0  0.61330  0.36830  0.88990  1.0000
  H   H43       1.0  0.43420  0.62503  0.09002  1.0000
  H   H44       1.0  0.56580  0.37497  0.90998  1.0000
  H   H45       1.0  0.34957  0.66585  0.08628  1.0000
  H   H46       1.0  0.65043  0.33415  0.91372  1.0000
  C   C39       1.0  0.36320  0.67920  0.24180  1.0000
  C   C40       1.0  0.63680  0.32080  0.75820  1.0000
  H   H47       1.0  0.32444  0.71559  0.22480  1.0000
  H   H48       1.0  0.67556  0.28441  0.77520  1.0000
  H   H49       1.0  0.39603  0.70234  0.30463  1.0000
  H   H50       1.0  0.60397  0.29766  0.69537  1.0000
  C   C41       1.0  0.30410  0.59820  0.21180  1.0000
  C   C42       1.0  0.69590  0.40180  0.78820  1.0000
  H   H51       1.0  0.25864  0.60568  0.23441  1.0000
  H   H52       1.0  0.74136  0.39432  0.76559  1.0000
  H   H53       1.0  0.34203  0.56386  0.23450  1.0000
  H   H54       1.0  0.65797  0.43614  0.76550  1.0000
  C   C43       1.0  0.51240  0.72190  0.24880  1.0000
  C   C44       1.0  0.48760  0.27810  0.75120  1.0000
  C   C45       1.0  0.64160  0.77310  0.25070  1.0000
  C   C46       1.0  0.35840  0.22690  0.74930  1.0000
  C   C47       1.0  0.62290  0.81310  0.37360  1.0000
  C   C48       1.0  0.37710  0.18690  0.62640  1.0000
  C   C49       1.0  0.77700  0.83840  0.25080  1.0000
  C   C50       1.0  0.22300  0.16160  0.74920  1.0000
  H   H55       1.0  0.79559  0.86276  0.31283  1.0000
  H   H56       1.0  0.20441  0.13724  0.68717  1.0000
  H   H57       1.0  0.76680  0.88072  0.22907  1.0000
  H   H58       1.0  0.23320  0.11928  0.77093  1.0000
  C   C51       1.0  0.85250  0.79840  0.23280  1.0000
  C   C52       1.0  0.14750  0.20160  0.76720  1.0000
  H   H59       1.0  0.86813  0.76138  0.26153  1.0000
  H   H60       1.0  0.13187  0.23862  0.73847  1.0000
  H   H61       1.0  0.90691  0.83938  0.25691  1.0000
  H   H62       1.0  0.09309  0.16062  0.74309  1.0000
  C   C53       1.0  0.82290  0.75200  0.13520  1.0000
  C   C54       1.0  0.17710  0.24800  0.86480  1.0000
  H   H63       1.0  0.81580  0.79039  0.10752  1.0000
  H   H64       1.0  0.18420  0.20961  0.89248  1.0000
  C   C55       1.0  0.73170  0.69370  0.09470  1.0000
  C   C56       1.0  0.26830  0.30630  0.90530  1.0000
  H   H65       1.0  0.71037  0.66844  0.03235  1.0000
  H   H66       1.0  0.28963  0.33156  0.96765  1.0000
  H   H67       1.0  0.74046  0.65156  0.11670  1.0000
  H   H68       1.0  0.25954  0.34844  0.88330  1.0000
  C   C57       1.0  0.66000  0.73640  0.11490  1.0000
  C   C58       1.0  0.34000  0.26360  0.88510  1.0000
  H   H69       1.0  0.64640  0.77482  0.08791  1.0000
  H   H70       1.0  0.35360  0.22518  0.91209  1.0000
  H   H71       1.0  0.60406  0.69745  0.09139  1.0000
  H   H72       1.0  0.39594  0.30255  0.90861  1.0000
  C   C59       1.0  0.89680  0.70620  0.12300  1.0000
  C   C60       1.0  0.10320  0.29380  0.87700  1.0000
  C   C61       1.0  0.74290  0.91680  0.50580  1.0000
  C   C62       1.0  0.25710  0.08320  0.49420  1.0000
  H   H73       1.0  0.73105  0.96908  0.50601  1.0000
  H   H74       1.0  0.26895  0.03092  0.49399  1.0000
  H   H75       1.0  0.78154  0.89991  0.47626  1.0000
  H   H76       1.0  0.21846  0.10009  0.52374  1.0000
  C   C63       1.0  0.79190  0.92350  0.59830  1.0000
  C   C64       1.0  0.20810  0.07650  0.40170  1.0000
  H   H77       1.0  0.84680  0.96542  0.62935  1.0000
  H   H78       1.0  0.15320  0.03458  0.37065  1.0000
  H   H79       1.0  0.81045  0.87294  0.59790  1.0000
  H   H80       1.0  0.18955  0.12706  0.40210  1.0000
  C   C65       1.0  0.73060  0.94350  0.64580  1.0000
  C   C66       1.0  0.26940  0.05650  0.35420  1.0000
  H   H81       1.0  0.71732  0.99695  0.65021  1.0000
  H   H82       1.0  0.28268  0.00305  0.34979  1.0000
  C   C67       1.0  0.64040  0.88290  0.59370  1.0000
  C   C68       1.0  0.35960  0.11710  0.40630  1.0000
  H   H83       1.0  0.65131  0.83035  0.59315  1.0000
  H   H84       1.0  0.34869  0.16965  0.40685  1.0000
  H   H85       1.0  0.59977  0.89921  0.62107  1.0000
  H   H86       1.0  0.40023  0.10079  0.37893  1.0000
  C   C69       1.0  0.59480  0.87690  0.50130  1.0000
  C   C70       1.0  0.40520  0.12310  0.49870  1.0000
  H   H87       1.0  0.53970  0.83510  0.46848  1.0000
  H   H88       1.0  0.46030  0.16490  0.53152  1.0000
  H   H89       1.0  0.57701  0.92767  0.50136  1.0000
  H   H90       1.0  0.42299  0.07233  0.49864  1.0000
  C   C71       1.0  0.78320  0.94780  0.73720  1.0000
  C   C72       1.0  0.21680  0.05220  0.26280  1.0000
  C   C73       1.0  0.48960  0.82820  0.74260  1.0000
  C   C74       1.0  0.51040  0.17180  0.25740  1.0000
  H   H91       1.0  0.50707  0.88571  0.75968  1.0000
  H   H92       1.0  0.49293  0.11429  0.24032  1.0000
  H   H93       1.0  0.45388  0.80359  0.68007  1.0000
  H   H94       1.0  0.54612  0.19641  0.31993  1.0000
  C   C75       1.0  0.57500  0.79290  0.76760  1.0000
  C   C76       1.0  0.42500  0.20710  0.23240  1.0000
  H   H95       1.0  0.61267  0.80527  0.74180  1.0000
  H   H96       1.0  0.38733  0.19473  0.25820  1.0000
  H   H97       1.0  0.55780  0.73462  0.74562  1.0000
  H   H98       1.0  0.44220  0.26538  0.25438  1.0000
  C   C77       1.0  0.63020  0.82790  0.86700  1.0000
  C   C78       1.0  0.36980  0.17210  0.13300  1.0000
  H   H99       1.0  0.65119  0.88594  0.88678  1.0000
  H   H100      1.0  0.34881  0.11406  0.11322  1.0000
  C   C79       1.0  0.56830  0.81690  0.90830  1.0000
  C   C80       1.0  0.43170  0.18310  0.09170  1.0000
  H   H101      1.0  0.60208  0.84361  0.97086  1.0000
  H   H102      1.0  0.39792  0.15639  0.02914  1.0000
  H   H103      1.0  0.55093  0.75986  0.89353  1.0000
  H   H104      1.0  0.44907  0.24014  0.10647  1.0000
  C   C81       1.0  0.48230  0.85090  0.87870  1.0000
  C   C82       1.0  0.51770  0.14910  0.12130  1.0000
  H   H105      1.0  0.44292  0.83964  0.90351  1.0000
  H   H106      1.0  0.55708  0.16036  0.09649  1.0000
  H   H107      1.0  0.49866  0.90900  0.89854  1.0000
  H   H108      1.0  0.50134  0.09100  0.10146  1.0000
  C   C83       1.0  0.71390  0.79060  0.88890  1.0000
  C   C84       1.0  0.28610  0.20940  0.11110  1.0000
  C   C85       1.0  0.76350  0.07310  0.93120  1.0000
  C   C86       1.0  0.23650  0.92690  0.06880  1.0000
  C   C87       1.0  0.68120  0.10790  0.89350  1.0000
  C   C88       1.0  0.31880  0.89210  0.10650  1.0000
  H   H109      1.0  0.70228  0.16545  0.91036  1.0000
  H   H110      1.0  0.29772  0.83455  0.08964  1.0000
  C   C89       1.0  0.63710  0.06610  0.79370  1.0000
  C   C90       1.0  0.36290  0.93390  0.20630  1.0000
  H   H111      1.0  0.68078  0.07667  0.77286  1.0000
  H   H112      1.0  0.31922  0.92333  0.22714  1.0000
  H   H113      1.0  0.62234  0.00819  0.77624  1.0000
  H   H114      1.0  0.37766  0.99181  0.22376  1.0000
  C   C91       1.0  0.55080  0.09490  0.75230  1.0000
  C   C92       1.0  0.44920  0.90510  0.24770  1.0000
  H   H115      1.0  0.56599  0.15150  0.76396  1.0000
  H   H116      1.0  0.43401  0.84850  0.23604  1.0000
  H   H117      1.0  0.52262  0.06454  0.68992  1.0000
  H   H118      1.0  0.47738  0.93546  0.31008  1.0000
  C   C93       1.0  0.52350  0.12810  0.88160  1.0000
  C   C94       1.0  0.47650  0.87190  0.11840  1.0000
  H   H119      1.0  0.47789  0.11954  0.90118  1.0000
  H   H120      1.0  0.52211  0.88046  0.09882  1.0000
  H   H121      1.0  0.53846  0.18543  0.89609  1.0000
  H   H122      1.0  0.46154  0.81457  0.10391  1.0000
  C   C95       1.0  0.60990  0.09960  0.92750  1.0000
  C   C96       1.0  0.39010  0.90040  0.07250  1.0000
  H   H123      1.0  0.59364  0.04367  0.91758  1.0000
  H   H124      1.0  0.40636  0.95633  0.08242  1.0000
  H   H125      1.0  0.63605  0.13160  0.98948  1.0000
  H   H126      1.0  0.36395  0.86840  0.01052  1.0000
  C   C97       1.0  0.41500  0.01880  0.74510  1.0000
  C   C98       1.0  0.58500  0.98120  0.25490  1.0000
  C   C99       1.0  0.32060  0.91470  0.62320  1.0000
  C   C100      1.0  0.67940  0.08530  0.37680  1.0000
  C   C101      1.0  0.29720  0.94780  0.74240  1.0000
  C   C102      1.0  0.70280  0.05220  0.25760  1.0000
  C   C103      1.0  0.35680  0.86030  0.49760  1.0000
  C   C104      1.0  0.64320  0.13970  0.50240  1.0000
  H   H127      1.0  0.38420  0.81323  0.49643  1.0000
  H   H128      1.0  0.61580  0.18677  0.50357  1.0000
  H   H129      1.0  0.40561  0.90780  0.53105  1.0000
  H   H130      1.0  0.59439  0.09220  0.46895  1.0000
  C   C105      1.0  0.30500  0.85480  0.40620  1.0000
  C   C106      1.0  0.69500  0.14520  0.59380  1.0000
  H   H131      1.0  0.34599  0.84691  0.37842  1.0000
  H   H132      1.0  0.65401  0.15309  0.62158  1.0000
  H   H133      1.0  0.28579  0.90548  0.40848  1.0000
  H   H134      1.0  0.71421  0.09452  0.59152  1.0000
  C   C107      1.0  0.22140  0.78670  0.35150  1.0000
  C   C108      1.0  0.77860  0.21330  0.64850  1.0000
  H   H135      1.0  0.24182  0.73508  0.34141  1.0000
  H   H136      1.0  0.75818  0.26492  0.65859  1.0000
  C   C109      1.0  0.16230  0.79190  0.40080  1.0000
  C   C110      1.0  0.83770  0.20810  0.59920  1.0000
  H   H137      1.0  0.13501  0.83922  0.40417  1.0000
  H   H138      1.0  0.86499  0.16078  0.59583  1.0000
  H   H139      1.0  0.11311  0.74473  0.36915  1.0000
  H   H140      1.0  0.88689  0.25527  0.63085  1.0000
  C   C111      1.0  0.21820  0.79680  0.49130  1.0000
  C   C112      1.0  0.78180  0.20320  0.50870  1.0000
  H   H141      1.0  0.17985  0.80297  0.52165  1.0000
  H   H142      1.0  0.82015  0.19703  0.47835  1.0000
  H   H143      1.0  0.24062  0.74718  0.48821  1.0000
  H   H144      1.0  0.75938  0.25282  0.51179  1.0000
  C   C113      1.0  0.16560  0.79040  0.26520  1.0000
  C   C114      1.0  0.83440  0.20960  0.73480  1.0000
  C   C115      1.0  0.15920  0.88000  0.73870  1.0000
  C   C116      1.0  0.84080  0.12000  0.26130  1.0000
  H   H145      1.0  0.15921  0.83939  0.76195  1.0000
  H   H146      1.0  0.84079  0.16061  0.23805  1.0000
  H   H147      1.0  0.14326  0.85277  0.67739  1.0000
  H   H148      1.0  0.85674  0.14723  0.32261  1.0000
  C   C117      1.0  0.08870  0.93230  0.75150  1.0000
  C   C118      1.0  0.91130  0.06770  0.24850  1.0000
  H   H149      1.0  0.08513  0.96965  0.72375  1.0000
  H   H150      1.0  0.91487  0.03035  0.27625  1.0000
  H   H151      1.0  0.02861  0.89794  0.72451  1.0000
  H   H152      1.0  0.97139  0.10206  0.27549  1.0000
  C   C119      1.0  0.11620  0.97920  0.84780  1.0000
  C   C120      1.0  0.88380  0.02080  0.15220  1.0000
  H   H153      1.0  0.11342  0.94030  0.87328  1.0000
  H   H154      1.0  0.88658  0.05970  0.12672  1.0000
  C   C121      1.0  0.21310  0.02840  0.89500  1.0000
  C   C122      1.0  0.78690  0.97160  0.10500  1.0000
  H   H155      1.0  0.23073  0.05227  0.95685  1.0000
  H   H156      1.0  0.76927  0.94773  0.04315  1.0000
  H   H157      1.0  0.21548  0.07185  0.87595  1.0000
  H   H158      1.0  0.78452  0.92815  0.12405  1.0000
  C   C123      1.0  0.28000  0.97520  0.87690  1.0000
  C   C124      1.0  0.72000  0.02480  0.12310  1.0000
  H   H159      1.0  0.34052  0.00845  0.90284  1.0000
  H   H160      1.0  0.65948  0.99155  0.09716  1.0000
  H   H161      1.0  0.28400  0.93650  0.90319  1.0000
  H   H162      1.0  0.71600  0.06350  0.09681  1.0000
  C   C125      1.0  0.05200  0.03580  0.86330  1.0000
  C   C126      1.0  0.94800  0.96420  0.13670  1.0000
