data_image0
_chemical_formula_structural       U12S16O96C16H8C8H8C40H8C24H8C12H4
_chemical_formula_sum              "U12 S16 O96 C100 H36"
_cell_length_a       22.7352
_cell_length_b       27.2585
_cell_length_c       8.1965
_cell_angle_alpha    90
_cell_angle_beta     102.973
_cell_angle_gamma    90

_space_group_name_H-M_alt    "P 1"
_space_group_IT_number       1

loop_
  _space_group_symop_operation_xyz
  'x, y, z'

loop_
  _atom_site_type_symbol
  _atom_site_label
  _atom_site_symmetry_multiplicity
  _atom_site_fract_x
  _atom_site_fract_y
  _atom_site_fract_z
  _atom_site_occupancy
  U   U1        1.0  0.63064  0.80453  0.12967  1.0000
  U   U2        1.0  0.36936  0.80453  0.87033  1.0000
  U   U3        1.0  0.13064  0.30453  0.12967  1.0000
  U   U4        1.0  0.86936  0.30453  0.87033  1.0000
  U   U5        1.0  0.36936  0.19547  0.87033  1.0000
  U   U6        1.0  0.63064  0.19547  0.12967  1.0000
  U   U7        1.0  0.86936  0.69547  0.87033  1.0000
  U   U8        1.0  0.13064  0.69547  0.12967  1.0000
  U   U9        1.0  0.65329  0.50000  0.99499  1.0000
  U   U10       1.0  0.34671  0.50000  0.00501  1.0000
  U   U11       1.0  0.15329  0.00000  0.99499  1.0000
  U   U12       1.0  0.84671  0.00000  0.00501  1.0000
  S   S1        1.0  0.64616  0.64365  0.52820  1.0000
  S   S2        1.0  0.35384  0.64365  0.47180  1.0000
  S   S3        1.0  0.14616  0.14365  0.52820  1.0000
  S   S4        1.0  0.85384  0.14365  0.47180  1.0000
  S   S5        1.0  0.35384  0.35635  0.47180  1.0000
  S   S6        1.0  0.64616  0.35635  0.52820  1.0000
  S   S7        1.0  0.85384  0.85635  0.47180  1.0000
  S   S8        1.0  0.14616  0.85635  0.52820  1.0000
  S   S9        1.0  0.50000  0.80426  0.50000  1.0000
  S   S10       1.0  0.00000  0.30426  0.50000  1.0000
  S   S11       1.0  0.50000  0.19574  0.50000  1.0000
  S   S12       1.0  0.00000  0.69574  0.50000  1.0000
  S   S13       1.0  0.64620  0.00000  0.09330  1.0000
  S   S14       1.0  0.35380  0.00000  0.90670  1.0000
  S   S15       1.0  0.14620  0.50000  0.09330  1.0000
  S   S16       1.0  0.85380  0.50000  0.90670  1.0000
  O   O1        1.0  0.56450  0.82310  0.19300  1.0000
  O   O2        1.0  0.43550  0.82310  0.80700  1.0000
  O   O3        1.0  0.06450  0.32310  0.19300  1.0000
  O   O4        1.0  0.93550  0.32310  0.80700  1.0000
  O   O5        1.0  0.43550  0.17690  0.80700  1.0000
  O   O6        1.0  0.56450  0.17690  0.19300  1.0000
  O   O7        1.0  0.93550  0.67690  0.80700  1.0000
  O   O8        1.0  0.06450  0.67690  0.19300  1.0000
  O   O9        1.0  0.69500  0.78710  0.05760  1.0000
  O   O10       1.0  0.30500  0.78710  0.94240  1.0000
  O   O11       1.0  0.19500  0.28710  0.05760  1.0000
  O   O12       1.0  0.80500  0.28710  0.94240  1.0000
  O   O13       1.0  0.30500  0.21290  0.94240  1.0000
  O   O14       1.0  0.69500  0.21290  0.05760  1.0000
  O   O15       1.0  0.80500  0.71290  0.94240  1.0000
  O   O16       1.0  0.19500  0.71290  0.05760  1.0000
  O   O17       1.0  0.57380  0.50000  0.95410  1.0000
  O   O18       1.0  0.42620  0.50000  0.04590  1.0000
  O   O19       1.0  0.07380  0.00000  0.95410  1.0000
  O   O20       1.0  0.92620  0.00000  0.04590  1.0000
  O   O21       1.0  0.73280  0.50000  0.04100  1.0000
  O   O22       1.0  0.26720  0.50000  0.95900  1.0000
  O   O23       1.0  0.23280  0.00000  0.04100  1.0000
  O   O24       1.0  0.76720  0.00000  0.95900  1.0000
  O   O25       1.0  0.67120  0.78221  0.42460  1.0000
  O   O26       1.0  0.32880  0.78221  0.57540  1.0000
  O   O27       1.0  0.17120  0.28221  0.42460  1.0000
  O   O28       1.0  0.82880  0.28221  0.57540  1.0000
  O   O29       1.0  0.32880  0.21779  0.57540  1.0000
  O   O30       1.0  0.67120  0.21779  0.42460  1.0000
  O   O31       1.0  0.82880  0.71779  0.57540  1.0000
  O   O32       1.0  0.17120  0.71779  0.42460  1.0000
  O   O33       1.0  0.63240  0.72184  0.25700  1.0000
  O   O34       1.0  0.36760  0.72184  0.74300  1.0000
  O   O35       1.0  0.13240  0.22184  0.25700  1.0000
  O   O36       1.0  0.86760  0.22184  0.74300  1.0000
  O   O37       1.0  0.36760  0.27816  0.74300  1.0000
  O   O38       1.0  0.63240  0.27816  0.25700  1.0000
  O   O39       1.0  0.86760  0.77816  0.74300  1.0000
  O   O40       1.0  0.13240  0.77816  0.25700  1.0000
  O   O41       1.0  0.65800  0.58890  0.97980  1.0000
  O   O42       1.0  0.34200  0.58890  0.02020  1.0000
  O   O43       1.0  0.15800  0.08890  0.97980  1.0000
  O   O44       1.0  0.84200  0.08890  0.02020  1.0000
  O   O45       1.0  0.34200  0.41110  0.02020  1.0000
  O   O46       1.0  0.65800  0.41110  0.97980  1.0000
  O   O47       1.0  0.84200  0.91110  0.02020  1.0000
  O   O48       1.0  0.15800  0.91110  0.97980  1.0000
  O   O49       1.0  0.64690  0.55059  0.74000  1.0000
  O   O50       1.0  0.35310  0.55059  0.26000  1.0000
  O   O51       1.0  0.14690  0.05059  0.74000  1.0000
  O   O52       1.0  0.85310  0.05059  0.26000  1.0000
  O   O53       1.0  0.35310  0.44941  0.26000  1.0000
  O   O54       1.0  0.64690  0.44941  0.74000  1.0000
  O   O55       1.0  0.85310  0.94941  0.26000  1.0000
  O   O56       1.0  0.14690  0.94941  0.74000  1.0000
  O   O57       1.0  0.56770  0.74577  0.93590  1.0000
  O   O58       1.0  0.43230  0.74577  0.06410  1.0000
  O   O59       1.0  0.06770  0.24577  0.93590  1.0000
  O   O60       1.0  0.93230  0.24577  0.06410  1.0000
  O   O61       1.0  0.43230  0.25423  0.06410  1.0000
  O   O62       1.0  0.56770  0.25423  0.93590  1.0000
  O   O63       1.0  0.93230  0.75423  0.06410  1.0000
  O   O64       1.0  0.06770  0.75423  0.93590  1.0000
  O   O65       1.0  0.58120  0.81840  0.83450  1.0000
  O   O66       1.0  0.41880  0.81840  0.16550  1.0000
  O   O67       1.0  0.08120  0.31840  0.83450  1.0000
  O   O68       1.0  0.91880  0.31840  0.16550  1.0000
  O   O69       1.0  0.41880  0.18160  0.16550  1.0000
  O   O70       1.0  0.58120  0.18160  0.83450  1.0000
  O   O71       1.0  0.91880  0.68160  0.16550  1.0000
  O   O72       1.0  0.08120  0.68160  0.83450  1.0000
  O   O73       1.0  0.63990  0.89010  0.04140  1.0000
  O   O74       1.0  0.36010  0.89010  0.95860  1.0000
  O   O75       1.0  0.13990  0.39010  0.04140  1.0000
  O   O76       1.0  0.86010  0.39010  0.95860  1.0000
  O   O77       1.0  0.36010  0.10990  0.95860  1.0000
  O   O78       1.0  0.63990  0.10990  0.04140  1.0000
  O   O79       1.0  0.86010  0.60990  0.95860  1.0000
  O   O80       1.0  0.13990  0.60990  0.04140  1.0000
  O   O81       1.0  0.68720  0.87159  0.29910  1.0000
  O   O82       1.0  0.31280  0.87159  0.70090  1.0000
  O   O83       1.0  0.18720  0.37159  0.29910  1.0000
  O   O84       1.0  0.81280  0.37159  0.70090  1.0000
  O   O85       1.0  0.31280  0.12841  0.70090  1.0000
  O   O86       1.0  0.68720  0.12841  0.29910  1.0000
  O   O87       1.0  0.81280  0.62841  0.70090  1.0000
  O   O88       1.0  0.18720  0.62841  0.29910  1.0000
  O   O89       1.0  0.65300  0.54000  0.26530  1.0000
  O   O90       1.0  0.34700  0.54000  0.73470  1.0000
  O   O91       1.0  0.15300  0.04000  0.26530  1.0000
  O   O92       1.0  0.84700  0.04000  0.73470  1.0000
  O   O93       1.0  0.34700  0.46000  0.73470  1.0000
  O   O94       1.0  0.65300  0.46000  0.26530  1.0000
  O   O95       1.0  0.84700  0.96000  0.73470  1.0000
  O   O96       1.0  0.15300  0.96000  0.26530  1.0000
  C   C1        1.0  0.66200  0.70550  0.54780  1.0000
  C   C2        1.0  0.33800  0.70550  0.45220  1.0000
  C   C3        1.0  0.16200  0.20550  0.54780  1.0000
  C   C4        1.0  0.83800  0.20550  0.45220  1.0000
  C   C5        1.0  0.33800  0.29450  0.45220  1.0000
  C   C6        1.0  0.66200  0.29450  0.54780  1.0000
  C   C7        1.0  0.83800  0.79450  0.45220  1.0000
  C   C8        1.0  0.16200  0.79450  0.54780  1.0000
  C   C9        1.0  0.67710  0.71970  0.71330  1.0000
  C   C10       1.0  0.32290  0.71970  0.28670  1.0000
  C   C11       1.0  0.17710  0.21970  0.71330  1.0000
  C   C12       1.0  0.82290  0.21970  0.28670  1.0000
  C   C13       1.0  0.32290  0.28030  0.28670  1.0000
  C   C14       1.0  0.67710  0.28030  0.71330  1.0000
  C   C15       1.0  0.82290  0.78030  0.28670  1.0000
  C   C16       1.0  0.17710  0.78030  0.71330  1.0000
  H   H1        1.0  0.68804  0.75233  0.74859  1.0000
  H   H2        1.0  0.31196  0.75233  0.25141  1.0000
  H   H3        1.0  0.18804  0.25233  0.74859  1.0000
  H   H4        1.0  0.81196  0.25233  0.25141  1.0000
  H   H5        1.0  0.31196  0.24767  0.25141  1.0000
  H   H6        1.0  0.68804  0.24767  0.74859  1.0000
  H   H7        1.0  0.81196  0.74767  0.25141  1.0000
  H   H8        1.0  0.18804  0.74767  0.74859  1.0000
  C   C17       1.0  0.67470  0.68100  0.82390  1.0000
  C   C18       1.0  0.32530  0.68100  0.17610  1.0000
  C   C19       1.0  0.17470  0.18100  0.82390  1.0000
  C   C20       1.0  0.82530  0.18100  0.17610  1.0000
  C   C21       1.0  0.32530  0.31900  0.17610  1.0000
  C   C22       1.0  0.67470  0.31900  0.82390  1.0000
  C   C23       1.0  0.82530  0.81900  0.17610  1.0000
  C   C24       1.0  0.17470  0.81900  0.82390  1.0000
  H   H9        1.0  0.68294  0.68454  0.94219  1.0000
  H   H10       1.0  0.31706  0.68454  0.05781  1.0000
  H   H11       1.0  0.18294  0.18454  0.94219  1.0000
  H   H12       1.0  0.81706  0.18454  0.05781  1.0000
  H   H13       1.0  0.31706  0.31546  0.05781  1.0000
  H   H14       1.0  0.68294  0.31546  0.94219  1.0000
  H   H15       1.0  0.81706  0.81546  0.05781  1.0000
  H   H16       1.0  0.18294  0.81546  0.94219  1.0000
  C   C25       1.0  0.65900  0.63770  0.74220  1.0000
  C   C26       1.0  0.34100  0.63770  0.25780  1.0000
  C   C27       1.0  0.15900  0.13770  0.74220  1.0000
  C   C28       1.0  0.84100  0.13770  0.25780  1.0000
  C   C29       1.0  0.34100  0.36230  0.25780  1.0000
  C   C30       1.0  0.65900  0.36230  0.74220  1.0000
  C   C31       1.0  0.84100  0.86230  0.25780  1.0000
  C   C32       1.0  0.15900  0.86230  0.74220  1.0000
  C   C33       1.0  0.65560  0.73760  0.40310  1.0000
  C   C34       1.0  0.34440  0.73760  0.59690  1.0000
  C   C35       1.0  0.15560  0.23760  0.40310  1.0000
  C   C36       1.0  0.84440  0.23760  0.59690  1.0000
  C   C37       1.0  0.34440  0.26240  0.59690  1.0000
  C   C38       1.0  0.65560  0.26240  0.40310  1.0000
  C   C39       1.0  0.84440  0.76240  0.59690  1.0000
  C   C40       1.0  0.15560  0.76240  0.40310  1.0000
  C   C41       1.0  0.65490  0.58990  0.82330  1.0000
  C   C42       1.0  0.34510  0.58990  0.17670  1.0000
  C   C43       1.0  0.15490  0.08990  0.82330  1.0000
  C   C44       1.0  0.84510  0.08990  0.17670  1.0000
  C   C45       1.0  0.34510  0.41010  0.17670  1.0000
  C   C46       1.0  0.65490  0.41010  0.82330  1.0000
  C   C47       1.0  0.84510  0.91010  0.17670  1.0000
  C   C48       1.0  0.15490  0.91010  0.82330  1.0000
  C   C49       1.0  0.52590  0.76020  0.64760  1.0000
  C   C50       1.0  0.47410  0.76020  0.35240  1.0000
  C   C51       1.0  0.02590  0.26020  0.64760  1.0000
  C   C52       1.0  0.97410  0.26020  0.35240  1.0000
  C   C53       1.0  0.47410  0.23980  0.35240  1.0000
  C   C54       1.0  0.52590  0.23980  0.64760  1.0000
  C   C55       1.0  0.97410  0.73980  0.35240  1.0000
  C   C56       1.0  0.02590  0.73980  0.64760  1.0000
  C   C57       1.0  0.51490  0.71370  0.58510  1.0000
  C   C58       1.0  0.48510  0.71370  0.41490  1.0000
  C   C59       1.0  0.01490  0.21370  0.58510  1.0000
  C   C60       1.0  0.98510  0.21370  0.41490  1.0000
  C   C61       1.0  0.48510  0.28630  0.41490  1.0000
  C   C62       1.0  0.51490  0.28630  0.58510  1.0000
  C   C63       1.0  0.98510  0.78630  0.41490  1.0000
  C   C64       1.0  0.01490  0.78630  0.58510  1.0000
  H   H17       1.0  0.52611  0.68477  0.64915  1.0000
  H   H18       1.0  0.47389  0.68477  0.35085  1.0000
  H   H19       1.0  0.02611  0.18477  0.64915  1.0000
  H   H20       1.0  0.97389  0.18477  0.35085  1.0000
  H   H21       1.0  0.47389  0.31523  0.35085  1.0000
  H   H22       1.0  0.52611  0.31523  0.64915  1.0000
  H   H23       1.0  0.97389  0.81523  0.35085  1.0000
  H   H24       1.0  0.02611  0.81523  0.64915  1.0000
  C   C65       1.0  0.55920  0.77540  0.81380  1.0000
  C   C66       1.0  0.44080  0.77540  0.18620  1.0000
  C   C67       1.0  0.05920  0.27540  0.81380  1.0000
  C   C68       1.0  0.94080  0.27540  0.18620  1.0000
  C   C69       1.0  0.44080  0.22460  0.18620  1.0000
  C   C70       1.0  0.55920  0.22460  0.81380  1.0000
  C   C71       1.0  0.94080  0.72460  0.18620  1.0000
  C   C72       1.0  0.05920  0.72460  0.81380  1.0000
  C   C73       1.0  0.68410  0.95550  0.22080  1.0000
  C   C74       1.0  0.31590  0.95550  0.77920  1.0000
  C   C75       1.0  0.18410  0.45550  0.22080  1.0000
  C   C76       1.0  0.81590  0.45550  0.77920  1.0000
  C   C77       1.0  0.31590  0.04450  0.77920  1.0000
  C   C78       1.0  0.68410  0.04450  0.22080  1.0000
  C   C79       1.0  0.81590  0.54450  0.77920  1.0000
  C   C80       1.0  0.18410  0.54450  0.22080  1.0000
  C   C81       1.0  0.72500  0.97420  0.35610  1.0000
  C   C82       1.0  0.27500  0.97420  0.64390  1.0000
  C   C83       1.0  0.22500  0.47420  0.35610  1.0000
  C   C84       1.0  0.77500  0.47420  0.64390  1.0000
  C   C85       1.0  0.27500  0.02580  0.64390  1.0000
  C   C86       1.0  0.72500  0.02580  0.35610  1.0000
  C   C87       1.0  0.77500  0.52580  0.64390  1.0000
  C   C88       1.0  0.22500  0.52580  0.35610  1.0000
  H   H25       1.0  0.75024  0.95461  0.43933  1.0000
  H   H26       1.0  0.24976  0.95461  0.56067  1.0000
  H   H27       1.0  0.25024  0.45461  0.43933  1.0000
  H   H28       1.0  0.74976  0.45461  0.56067  1.0000
  H   H29       1.0  0.24976  0.04539  0.56067  1.0000
  H   H30       1.0  0.75024  0.04539  0.43933  1.0000
  H   H31       1.0  0.74976  0.54539  0.56067  1.0000
  H   H32       1.0  0.25024  0.54539  0.43933  1.0000
  C   C89       1.0  0.67080  0.90310  0.18420  1.0000
  C   C90       1.0  0.32920  0.90310  0.81580  1.0000
  C   C91       1.0  0.17080  0.40310  0.18420  1.0000
  C   C92       1.0  0.82920  0.40310  0.81580  1.0000
  C   C93       1.0  0.32920  0.09690  0.81580  1.0000
  C   C94       1.0  0.67080  0.09690  0.18420  1.0000
  C   C95       1.0  0.82920  0.59690  0.81580  1.0000
  C   C96       1.0  0.17080  0.59690  0.18420  1.0000
  C   C97       1.0  0.64860  0.50000  0.33740  1.0000
  C   C98       1.0  0.35140  0.50000  0.66260  1.0000
  C   C99       1.0  0.14860  0.00000  0.33740  1.0000
  C   C100      1.0  0.85140  0.00000  0.66260  1.0000
  H   H33       1.0  0.64183  0.50000  0.44769  1.0000
  H   H34       1.0  0.35817  0.50000  0.55231  1.0000
  H   H35       1.0  0.14183  0.00000  0.44769  1.0000
  H   H36       1.0  0.85817  0.00000  0.55231  1.0000
