data_image0
_chemical_formula_structural       U4S4O32C8H4C4H4C16H4
_chemical_formula_sum              "U4 S4 O32 C28 H12"
_cell_length_a       10.5122
_cell_length_b       18.3921
_cell_length_c       13.6163
_cell_angle_alpha    90
_cell_angle_beta     101.743
_cell_angle_gamma    90

_space_group_name_H-M_alt    "P 1"
_space_group_IT_number       1

loop_
  _space_group_symop_operation_xyz
  'x, y, z'

loop_
  _atom_site_type_symbol
  _atom_site_label
  _atom_site_symmetry_multiplicity
  _atom_site_fract_x
  _atom_site_fract_y
  _atom_site_fract_z
  _atom_site_occupancy
  U   U1        1.0  0.54642  0.23598  0.58214  1.0000
  U   U2        1.0  0.95358  0.73598  0.91786  1.0000
  U   U3        1.0  0.45358  0.76402  0.41786  1.0000
  U   U4        1.0  0.04642  0.26402  0.08214  1.0000
  S   S1        1.0  0.77226  0.48240  0.74907  1.0000
  S   S2        1.0  0.72774  0.98240  0.75093  1.0000
  S   S3        1.0  0.22774  0.51760  0.25093  1.0000
  S   S4        1.0  0.27226  0.01760  0.24907  1.0000
  O   O1        1.0  0.41052  0.25082  0.63904  1.0000
  O   O2        1.0  0.08948  0.75082  0.86096  1.0000
  O   O3        1.0  0.58948  0.74918  0.36096  1.0000
  O   O4        1.0  0.91052  0.24918  0.13904  1.0000
  O   O5        1.0  0.68039  0.22100  0.52307  1.0000
  O   O6        1.0  0.81961  0.72100  0.97693  1.0000
  O   O7        1.0  0.31961  0.77900  0.47693  1.0000
  O   O8        1.0  0.18039  0.27900  0.02307  1.0000
  O   O9        1.0  0.55506  0.36602  0.53727  1.0000
  O   O10       1.0  0.94494  0.86602  0.96273  1.0000
  O   O11       1.0  0.44494  0.63398  0.46273  1.0000
  O   O12       1.0  0.05506  0.13398  0.03727  1.0000
  O   O13       1.0  0.66593  0.33413  0.68578  1.0000
  O   O14       1.0  0.83407  0.83413  0.81422  1.0000
  O   O15       1.0  0.33407  0.66587  0.31422  1.0000
  O   O16       1.0  0.16593  0.16587  0.18578  1.0000
  O   O17       1.0  0.83435  0.69255  0.75232  1.0000
  O   O18       1.0  0.66565  0.19255  0.74768  1.0000
  O   O19       1.0  0.16565  0.30745  0.24768  1.0000
  O   O20       1.0  0.33435  0.80745  0.25232  1.0000
  O   O21       1.0  0.91682  0.60793  0.86053  1.0000
  O   O22       1.0  0.58318  0.10793  0.63947  1.0000
  O   O23       1.0  0.08318  0.39207  0.13947  1.0000
  O   O24       1.0  0.41682  0.89207  0.36053  1.0000
  O   O25       1.0  0.40819  0.14896  0.46926  1.0000
  O   O26       1.0  0.09181  0.64896  0.03074  1.0000
  O   O27       1.0  0.59181  0.85104  0.53074  1.0000
  O   O28       1.0  0.90819  0.35104  0.96926  1.0000
  O   O29       1.0  0.41129  0.26198  0.41870  1.0000
  O   O30       1.0  0.08871  0.76198  0.08130  1.0000
  O   O31       1.0  0.58871  0.73802  0.58130  1.0000
  O   O32       1.0  0.91129  0.23802  0.91870  1.0000
  C   C1        1.0  0.68570  0.45623  0.63338  1.0000
  C   C2        1.0  0.81430  0.95623  0.86662  1.0000
  C   C3        1.0  0.31430  0.54377  0.36662  1.0000
  C   C4        1.0  0.18570  0.04377  0.13338  1.0000
  C   C5        1.0  0.67149  0.51194  0.56498  1.0000
  C   C6        1.0  0.82851  0.01194  0.93502  1.0000
  C   C7        1.0  0.32851  0.48806  0.43502  1.0000
  C   C8        1.0  0.17149  0.98806  0.06498  1.0000
  H   H1        1.0  0.62789  0.50702  0.49699  1.0000
  H   H2        1.0  0.87211  0.00702  0.00301  1.0000
  H   H3        1.0  0.37211  0.49298  0.50301  1.0000
  H   H4        1.0  0.12789  0.99298  0.99699  1.0000
  C   C9        1.0  0.72878  0.57741  0.60673  1.0000
  C   C10       1.0  0.77122  0.07741  0.89327  1.0000
  C   C11       1.0  0.27122  0.42259  0.39327  1.0000
  C   C12       1.0  0.22878  0.92259  0.10673  1.0000
  H   H5        1.0  0.72770  0.62159  0.57041  1.0000
  H   H6        1.0  0.77230  0.12159  0.92959  1.0000
  H   H7        1.0  0.27230  0.37841  0.42959  1.0000
  H   H8        1.0  0.22770  0.87841  0.07041  1.0000
  C   C13       1.0  0.78615  0.56947  0.70601  1.0000
  C   C14       1.0  0.71385  0.06947  0.79399  1.0000
  C   C15       1.0  0.21385  0.43053  0.29399  1.0000
  C   C16       1.0  0.28615  0.93053  0.20601  1.0000
  C   C17       1.0  0.63307  0.38176  0.61785  1.0000
  C   C18       1.0  0.86693  0.88176  0.88215  1.0000
  C   C19       1.0  0.36693  0.61824  0.38215  1.0000
  C   C20       1.0  0.13307  0.11824  0.11785  1.0000
  C   C21       1.0  0.84899  0.62630  0.77594  1.0000
  C   C22       1.0  0.65101  0.12630  0.72406  1.0000
  C   C23       1.0  0.15101  0.37370  0.22406  1.0000
  C   C24       1.0  0.34899  0.87370  0.27594  1.0000
  C   C25       1.0  0.36708  0.19832  0.40629  1.0000
  C   C26       1.0  0.13292  0.69832  0.09371  1.0000
  C   C27       1.0  0.63292  0.80168  0.59371  1.0000
  C   C28       1.0  0.86708  0.30168  0.90629  1.0000
  H   H9        1.0  0.30203  0.18726  0.34889  1.0000
  H   H10       1.0  0.19797  0.68726  0.15111  1.0000
  H   H11       1.0  0.69797  0.81274  0.65111  1.0000
  H   H12       1.0  0.80203  0.31274  0.84889  1.0000
