data_image0
_chemical_formula_structural       U8S12O64C8H4C4H4C20H4C4H4C20H4C4H4C12
_chemical_formula_sum              "U8 S12 O64 C72 H24"
_cell_length_a       18.3336
_cell_length_b       18.4172
_cell_length_c       19.7929
_cell_angle_alpha    90
_cell_angle_beta     113.972
_cell_angle_gamma    90

_space_group_name_H-M_alt    "P 1"
_space_group_IT_number       1

loop_
  _space_group_symop_operation_xyz
  'x, y, z'

loop_
  _atom_site_type_symbol
  _atom_site_label
  _atom_site_symmetry_multiplicity
  _atom_site_fract_x
  _atom_site_fract_y
  _atom_site_fract_z
  _atom_site_occupancy
  U   U1        1.0  0.04326  0.42919  0.63260  1.0000
  U   U2        1.0  0.95674  0.92919  0.86740  1.0000
  U   U3        1.0  0.95674  0.57081  0.36740  1.0000
  U   U4        1.0  0.04326  0.07081  0.13260  1.0000
  U   U5        1.0  0.39732  0.46550  0.31864  1.0000
  U   U6        1.0  0.60268  0.96550  0.18136  1.0000
  U   U7        1.0  0.60268  0.53450  0.68136  1.0000
  U   U8        1.0  0.39732  0.03450  0.81864  1.0000
  S   S1        1.0  0.19073  0.45155  0.45065  1.0000
  S   S2        1.0  0.80927  0.95155  0.04935  1.0000
  S   S3        1.0  0.80927  0.54845  0.54935  1.0000
  S   S4        1.0  0.19073  0.04845  0.95065  1.0000
  S   S5        1.0  0.97679  0.67580  0.73879  1.0000
  S   S6        1.0  0.02321  0.17580  0.76121  1.0000
  S   S7        1.0  0.02321  0.32420  0.26121  1.0000
  S   S8        1.0  0.97679  0.82420  0.23879  1.0000
  S   S9        1.0  0.51246  0.21446  0.26507  1.0000
  S   S10       1.0  0.48754  0.71446  0.23493  1.0000
  S   S11       1.0  0.48754  0.78554  0.73493  1.0000
  S   S12       1.0  0.51246  0.28554  0.76507  1.0000
  O   O1        1.0  0.94574  0.41311  0.56490  1.0000
  O   O2        1.0  0.05426  0.91311  0.93510  1.0000
  O   O3        1.0  0.05426  0.58689  0.43510  1.0000
  O   O4        1.0  0.94574  0.08689  0.06490  1.0000
  O   O5        1.0  0.14033  0.44367  0.70302  1.0000
  O   O6        1.0  0.85967  0.94367  0.79698  1.0000
  O   O7        1.0  0.85967  0.55633  0.29698  1.0000
  O   O8        1.0  0.14033  0.05633  0.20302  1.0000
  O   O9        1.0  0.32676  0.45869  0.22570  1.0000
  O   O10       1.0  0.67324  0.95869  0.27430  1.0000
  O   O11       1.0  0.67324  0.54131  0.77430  1.0000
  O   O12       1.0  0.32676  0.04131  0.72570  1.0000
  O   O13       1.0  0.46774  0.47411  0.41147  1.0000
  O   O14       1.0  0.53226  0.97411  0.08853  1.0000
  O   O15       1.0  0.53226  0.52589  0.58853  1.0000
  O   O16       1.0  0.46774  0.02589  0.91147  1.0000
  O   O17       1.0  0.09579  0.34421  0.56649  1.0000
  O   O18       1.0  0.90421  0.84421  0.93351  1.0000
  O   O19       1.0  0.90421  0.65579  0.43351  1.0000
  O   O20       1.0  0.09579  0.15579  0.06649  1.0000
  O   O21       1.0  0.10413  0.46128  0.54786  1.0000
  O   O22       1.0  0.89587  0.96128  0.95214  1.0000
  O   O23       1.0  0.89587  0.53872  0.45214  1.0000
  O   O24       1.0  0.10413  0.03872  0.04786  1.0000
  O   O25       1.0  0.28727  0.48581  0.36059  1.0000
  O   O26       1.0  0.71273  0.98581  0.13941  1.0000
  O   O27       1.0  0.71273  0.51419  0.63941  1.0000
  O   O28       1.0  0.28727  0.01419  0.86059  1.0000
  O   O29       1.0  0.32501  0.37315  0.35556  1.0000
  O   O30       1.0  0.67499  0.87315  0.14444  1.0000
  O   O31       1.0  0.67499  0.62685  0.64444  1.0000
  O   O32       1.0  0.32501  0.12685  0.85556  1.0000
  O   O33       1.0  0.03374  0.55897  0.60230  1.0000
  O   O34       1.0  0.96626  0.05897  0.89770  1.0000
  O   O35       1.0  0.96626  0.44103  0.39770  1.0000
  O   O36       1.0  0.03374  0.94103  0.10230  1.0000
  O   O37       1.0  0.99717  0.52722  0.69140  1.0000
  O   O38       1.0  0.00283  0.02722  0.80860  1.0000
  O   O39       1.0  0.00283  0.47278  0.30860  1.0000
  O   O40       1.0  0.99717  0.97278  0.19140  1.0000
  O   O41       1.0  0.00064  0.88572  0.77173  1.0000
  O   O42       1.0  0.99936  0.38572  0.72827  1.0000
  O   O43       1.0  0.99936  0.11428  0.22827  1.0000
  O   O44       1.0  0.00064  0.61428  0.27173  1.0000
  O   O45       1.0  0.94833  0.80293  0.81938  1.0000
  O   O46       1.0  0.05167  0.30293  0.68062  1.0000
  O   O47       1.0  0.05167  0.19707  0.18062  1.0000
  O   O48       1.0  0.94833  0.69707  0.31938  1.0000
  O   O49       1.0  0.43924  0.33914  0.30976  1.0000
  O   O50       1.0  0.56076  0.83914  0.19024  1.0000
  O   O51       1.0  0.56076  0.66086  0.69024  1.0000
  O   O52       1.0  0.43924  0.16086  0.80976  1.0000
  O   O53       1.0  0.50733  0.42617  0.28569  1.0000
  O   O54       1.0  0.49267  0.92617  0.21431  1.0000
  O   O55       1.0  0.49267  0.57383  0.71431  1.0000
  O   O56       1.0  0.50733  0.07383  0.78569  1.0000
  O   O57       1.0  0.54292  0.06713  0.22241  1.0000
  O   O58       1.0  0.45708  0.56713  0.27759  1.0000
  O   O59       1.0  0.45708  0.93287  0.77759  1.0000
  O   O60       1.0  0.54292  0.43287  0.72241  1.0000
  O   O61       1.0  0.63683  0.09613  0.18471  1.0000
  O   O62       1.0  0.36317  0.59613  0.31529  1.0000
  O   O63       1.0  0.36317  0.90387  0.81529  1.0000
  O   O64       1.0  0.63683  0.40387  0.68471  1.0000
  C   C1        1.0  0.16077  0.38072  0.48975  1.0000
  C   C2        1.0  0.83923  0.88072  0.01025  1.0000
  C   C3        1.0  0.83923  0.61928  0.51025  1.0000
  C   C4        1.0  0.16077  0.11928  0.98975  1.0000
  C   C5        1.0  0.18516  0.31460  0.47484  1.0000
  C   C6        1.0  0.81484  0.81460  0.02516  1.0000
  C   C7        1.0  0.81484  0.68540  0.52516  1.0000
  C   C8        1.0  0.18516  0.18540  0.97484  1.0000
  H   H1        1.0  0.17327  0.26958  0.49151  1.0000
  H   H2        1.0  0.82673  0.76958  0.00849  1.0000
  H   H3        1.0  0.82673  0.73042  0.50849  1.0000
  H   H4        1.0  0.17327  0.23042  0.99151  1.0000
  C   C9        1.0  0.23008  0.32138  0.43175  1.0000
  C   C10       1.0  0.76992  0.82138  0.06825  1.0000
  C   C11       1.0  0.76992  0.67862  0.56825  1.0000
  C   C12       1.0  0.23008  0.17862  0.93175  1.0000
  H   H5        1.0  0.25245  0.28143  0.41644  1.0000
  H   H6        1.0  0.74755  0.78143  0.08356  1.0000
  H   H7        1.0  0.74755  0.71857  0.58356  1.0000
  H   H8        1.0  0.25245  0.21857  0.91644  1.0000
  C   C13       1.0  0.23770  0.39242  0.41452  1.0000
  C   C14       1.0  0.76230  0.89242  0.08548  1.0000
  C   C15       1.0  0.76230  0.60758  0.58548  1.0000
  C   C16       1.0  0.23770  0.10758  0.91452  1.0000
  C   C17       1.0  0.11730  0.39604  0.53662  1.0000
  C   C18       1.0  0.88270  0.89604  0.96338  1.0000
  C   C19       1.0  0.88270  0.60396  0.46338  1.0000
  C   C20       1.0  0.11730  0.10396  0.03662  1.0000
  C   C21       1.0  0.28455  0.41856  0.37412  1.0000
  C   C22       1.0  0.71545  0.91856  0.12588  1.0000
  C   C23       1.0  0.71545  0.58144  0.62588  1.0000
  C   C24       1.0  0.28455  0.08144  0.87412  1.0000
  C   C25       1.0  0.00560  0.65272  0.66945  1.0000
  C   C26       1.0  0.99440  0.15272  0.83055  1.0000
  C   C27       1.0  0.99440  0.34728  0.33055  1.0000
  C   C28       1.0  0.00560  0.84728  0.16945  1.0000
  C   C29       1.0  0.02484  0.71185  0.63788  1.0000
  C   C30       1.0  0.97516  0.21185  0.86212  1.0000
  C   C31       1.0  0.97516  0.28815  0.36212  1.0000
  C   C32       1.0  0.02484  0.78815  0.13788  1.0000
  H   H9        1.0  0.04118  0.70905  0.59814  1.0000
  H   H10       1.0  0.95882  0.20905  0.90186  1.0000
  H   H11       1.0  0.95882  0.29095  0.40186  1.0000
  H   H12       1.0  0.04118  0.79095  0.09814  1.0000
  C   C33       1.0  0.01743  0.77737  0.67152  1.0000
  C   C34       1.0  0.98257  0.27737  0.82848  1.0000
  C   C35       1.0  0.98257  0.22263  0.32848  1.0000
  C   C36       1.0  0.01743  0.72263  0.17152  1.0000
  H   H13       1.0  0.02878  0.82392  0.65747  1.0000
  H   H14       1.0  0.97122  0.32392  0.84253  1.0000
  H   H15       1.0  0.97122  0.17608  0.34253  1.0000
  H   H16       1.0  0.02878  0.67608  0.15747  1.0000
  C   C37       1.0  0.99187  0.76591  0.72697  1.0000
  C   C38       1.0  0.00813  0.26591  0.77303  1.0000
  C   C39       1.0  0.00813  0.23409  0.27303  1.0000
  C   C40       1.0  0.99187  0.73409  0.22697  1.0000
  C   C41       1.0  0.01171  0.57570  0.65312  1.0000
  C   C42       1.0  0.98829  0.07570  0.84688  1.0000
  C   C43       1.0  0.98829  0.42430  0.34688  1.0000
  C   C44       1.0  0.01171  0.92430  0.15312  1.0000
  C   C45       1.0  0.97953  0.82079  0.77511  1.0000
  C   C46       1.0  0.02047  0.32079  0.72489  1.0000
  C   C47       1.0  0.02047  0.17921  0.22489  1.0000
  C   C48       1.0  0.97953  0.67921  0.27511  1.0000
  C   C49       1.0  0.53660  0.30442  0.26567  1.0000
  C   C50       1.0  0.46340  0.80442  0.23433  1.0000
  C   C51       1.0  0.46340  0.69558  0.73433  1.0000
  C   C52       1.0  0.53660  0.19558  0.76567  1.0000
  C   C53       1.0  0.59487  0.31566  0.23975  1.0000
  C   C54       1.0  0.40513  0.81566  0.26025  1.0000
  C   C55       1.0  0.40513  0.68434  0.76025  1.0000
  C   C56       1.0  0.59487  0.18434  0.73975  1.0000
  H   H17       1.0  0.61632  0.36196  0.23694  1.0000
  H   H18       1.0  0.38368  0.86196  0.26306  1.0000
  H   H19       1.0  0.38368  0.63804  0.76306  1.0000
  H   H20       1.0  0.61632  0.13804  0.73694  1.0000
  C   C57       1.0  0.61899  0.25018  0.21782  1.0000
  C   C58       1.0  0.38101  0.75018  0.28218  1.0000
  C   C59       1.0  0.38101  0.74982  0.78218  1.0000
  C   C60       1.0  0.61899  0.24982  0.71782  1.0000
  H   H21       1.0  0.65826  0.24737  0.19807  1.0000
  H   H22       1.0  0.34174  0.74737  0.30193  1.0000
  H   H23       1.0  0.34174  0.75263  0.80193  1.0000
  H   H24       1.0  0.65826  0.25263  0.69807  1.0000
  C   C61       1.0  0.57922  0.19108  0.22833  1.0000
  C   C62       1.0  0.42078  0.69108  0.27167  1.0000
  C   C63       1.0  0.42078  0.80892  0.77167  1.0000
  C   C64       1.0  0.57922  0.30892  0.72833  1.0000
  C   C65       1.0  0.49290  0.35928  0.28875  1.0000
  C   C66       1.0  0.50710  0.85928  0.21125  1.0000
  C   C67       1.0  0.50710  0.64072  0.71125  1.0000
  C   C68       1.0  0.49290  0.14072  0.78875  1.0000
  C   C69       1.0  0.58711  0.11443  0.21102  1.0000
  C   C70       1.0  0.41289  0.61443  0.28898  1.0000
  C   C71       1.0  0.41289  0.88557  0.78898  1.0000
  C   C72       1.0  0.58711  0.38557  0.71102  1.0000
