data_image0
_chemical_formula_structural       C8H2C2H2C2H2C2H2C2H2C2H2C2H2C2H2C2H2C8H2C2H2C2H2C2H2C2H2C2H2C2H2C2H2C2H2C24F20Fe4Pt2Tl2
_chemical_formula_sum              "C72 H36 F20 Fe4 Pt2 Tl2"
_cell_length_a       11.5763
_cell_length_b       15.044
_cell_length_c       16.6926
_cell_angle_alpha    76.909
_cell_angle_beta     87.142
_cell_angle_gamma    80.036

_space_group_name_H-M_alt    "P 1"
_space_group_IT_number       1

loop_
  _space_group_symop_operation_xyz
  'x, y, z'

loop_
  _atom_site_type_symbol
  _atom_site_label
  _atom_site_symmetry_multiplicity
  _atom_site_fract_x
  _atom_site_fract_y
  _atom_site_fract_z
  _atom_site_occupancy
  C   C1        1.0  0.20220  0.06910  0.89830  1.0000
  C   C2        1.0  0.79780  0.93090  0.10170  1.0000
  C   C3        1.0  0.16470  0.09990  0.82940  1.0000
  C   C4        1.0  0.83530  0.90010  0.17060  1.0000
  C   C5        1.0  0.11890  0.13710  0.74800  1.0000
  C   C6        1.0  0.88110  0.86290  0.25200  1.0000
  C   C7        1.0  0.18780  0.16640  0.67510  1.0000
  C   C8        1.0  0.81220  0.83360  0.32490  1.0000
  H   H1        1.0  0.27020  0.16550  0.67290  1.0000
  H   H2        1.0  0.72980  0.83450  0.32710  1.0000
  C   C9        1.0  0.10980  0.19710  0.60720  1.0000
  C   C10       1.0  0.89020  0.80290  0.39280  1.0000
  H   H3        1.0  0.13060  0.22140  0.55180  1.0000
  H   H4        1.0  0.86940  0.77860  0.44820  1.0000
  C   C11       1.0  0.99520  0.18500  0.63720  1.0000
  C   C12       1.0  0.00480  0.81500  0.36280  1.0000
  H   H5        1.0  0.92660  0.19920  0.60470  1.0000
  H   H6        1.0  0.07340  0.80080  0.39530  1.0000
  C   C13       1.0  0.99980  0.14830  0.72310  1.0000
  C   C14       1.0  0.00020  0.85170  0.27690  1.0000
  H   H7        1.0  0.93520  0.13370  0.75810  1.0000
  H   H8        1.0  0.06480  0.86630  0.24190  1.0000
  C   C15       1.0  0.16090  0.92860  0.72280  1.0000
  C   C16       1.0  0.83910  0.07140  0.27720  1.0000
  H   H9        1.0  0.18700  0.90910  0.77810  1.0000
  H   H10       1.0  0.81300  0.09090  0.22190  1.0000
  C   C17       1.0  0.23300  0.95080  0.65280  1.0000
  C   C18       1.0  0.76700  0.04920  0.34720  1.0000
  H   H11       1.0  0.31560  0.94850  0.65280  1.0000
  H   H12       1.0  0.68440  0.05150  0.34720  1.0000
  C   C19       1.0  0.15940  0.97750  0.58180  1.0000
  C   C20       1.0  0.84060  0.02250  0.41820  1.0000
  H   H13       1.0  0.18380  0.99660  0.52630  1.0000
  H   H14       1.0  0.81620  0.00340  0.47370  1.0000
  C   C21       1.0  0.04310  0.96990  0.61030  1.0000
  C   C22       1.0  0.95690  0.03010  0.38970  1.0000
  H   H15       1.0  0.97590  0.98270  0.57660  1.0000
  H   H16       1.0  0.02410  0.01730  0.42340  1.0000
  C   C23       1.0  0.04370  0.94010  0.69710  1.0000
  C   C24       1.0  0.95630  0.05990  0.30290  1.0000
  H   H17       1.0  0.97740  0.92980  0.73170  1.0000
  H   H18       1.0  0.02260  0.07020  0.26830  1.0000
  C   C25       1.0  0.29460  0.96800  0.13480  1.0000
  C   C26       1.0  0.70540  0.03200  0.86520  1.0000
  C   C27       1.0  0.32690  0.95260  0.20500  1.0000
  C   C28       1.0  0.67310  0.04740  0.79500  1.0000
  C   C29       1.0  0.36930  0.93720  0.28710  1.0000
  C   C30       1.0  0.63070  0.06280  0.71290  1.0000
  C   C31       1.0  0.48620  0.94250  0.30850  1.0000
  C   C32       1.0  0.51380  0.05750  0.69150  1.0000
  H   H19       1.0  0.54880  0.95480  0.27090  1.0000
  H   H20       1.0  0.45120  0.04520  0.72910  1.0000
  C   C33       1.0  0.49210  0.92610  0.39600  1.0000
  C   C34       1.0  0.50790  0.07390  0.60400  1.0000
  H   H21       1.0  0.55910  0.92560  0.42680  1.0000
  H   H22       1.0  0.44090  0.07440  0.57320  1.0000
  C   C35       1.0  0.38070  0.91080  0.42830  1.0000
  C   C36       1.0  0.61930  0.08920  0.57170  1.0000
  H   H23       1.0  0.35990  0.89740  0.48510  1.0000
  H   H24       1.0  0.64010  0.10260  0.51490  1.0000
  C   C37       1.0  0.30560  0.91870  0.36250  1.0000
  C   C38       1.0  0.69440  0.08130  0.63750  1.0000
  H   H25       1.0  0.22500  0.91260  0.36760  1.0000
  H   H26       1.0  0.77500  0.08740  0.63240  1.0000
  C   C39       1.0  0.30050  0.15780  0.27390  1.0000
  C   C40       1.0  0.69950  0.84220  0.72610  1.0000
  H   H27       1.0  0.27380  0.16150  0.22020  1.0000
  H   H28       1.0  0.72620  0.83850  0.77980  1.0000
  C   C41       1.0  0.41720  0.16310  0.29700  1.0000
  C   C42       1.0  0.58280  0.83690  0.70300  1.0000
  H   H29       1.0  0.48210  0.17240  0.26090  1.0000
  H   H30       1.0  0.51790  0.82760  0.73910  1.0000
  C   C43       1.0  0.41690  0.15230  0.38050  1.0000
  C   C44       1.0  0.58310  0.84770  0.61950  1.0000
  H   H31       1.0  0.48320  0.15100  0.41240  1.0000
  H   H32       1.0  0.51680  0.84900  0.58760  1.0000
  C   C45       1.0  0.30840  0.14370  0.41070  1.0000
  C   C46       1.0  0.69160  0.85630  0.58930  1.0000
  H   H33       1.0  0.28710  0.13710  0.46720  1.0000
  H   H34       1.0  0.71290  0.86290  0.53280  1.0000
  C   C47       1.0  0.23280  0.14570  0.34960  1.0000
  C   C48       1.0  0.76720  0.85430  0.65040  1.0000
  H   H35       1.0  0.15220  0.14020  0.35570  1.0000
  H   H36       1.0  0.84780  0.85980  0.64430  1.0000
  C   C49       1.0  0.21550  0.14590  0.04190  1.0000
  C   C50       1.0  0.78450  0.85410  0.95810  1.0000
  C   C51       1.0  0.29210  0.20840  0.02570  1.0000
  C   C52       1.0  0.70790  0.79160  0.97430  1.0000
  C   C53       1.0  0.27290  0.29390  0.04640  1.0000
  C   C54       1.0  0.72710  0.70610  0.95360  1.0000
  C   C55       1.0  0.17090  0.32230  0.08530  1.0000
  C   C56       1.0  0.82910  0.67770  0.91470  1.0000
  C   C57       1.0  0.08930  0.26310  0.10260  1.0000
  C   C58       1.0  0.91070  0.73690  0.89740  1.0000
  C   C59       1.0  0.11320  0.17780  0.08100  1.0000
  C   C60       1.0  0.88680  0.82220  0.91900  1.0000
  C   C61       1.0  0.27610  0.88090  0.99370  1.0000
  C   C62       1.0  0.72390  0.11910  0.00630  1.0000
  C   C63       1.0  0.22440  0.80970  0.04060  1.0000
  C   C64       1.0  0.77560  0.19030  0.95940  1.0000
  C   C65       1.0  0.23600  0.72250  0.02620  1.0000
  C   C66       1.0  0.76400  0.27750  0.97380  1.0000
  C   C67       1.0  0.30290  0.70170  0.96150  1.0000
  C   C68       1.0  0.69710  0.29830  0.03850  1.0000
  C   C69       1.0  0.35880  0.76740  0.91350  1.0000
  C   C70       1.0  0.64120  0.23260  0.08650  1.0000
  C   C71       1.0  0.34440  0.85470  0.92950  1.0000
  C   C72       1.0  0.65560  0.14530  0.07050  1.0000
  F   F1        1.0  0.39650  0.18820  0.98670  1.0000
  F   F2        1.0  0.60350  0.81180  0.01330  1.0000
  F   F3        1.0  0.35390  0.35030  0.02720  1.0000
  F   F4        1.0  0.64610  0.64970  0.97280  1.0000
  F   F5        1.0  0.14850  0.40550  0.10390  1.0000
  F   F6        1.0  0.85150  0.59450  0.89610  1.0000
  F   F7        1.0  0.98720  0.28860  0.13970  1.0000
  F   F8        1.0  0.01280  0.71140  0.86030  1.0000
  F   F9        1.0  0.02840  0.12430  0.10310  1.0000
  F   F10       1.0  0.97160  0.87570  0.89690  1.0000
  F   F11       1.0  0.15200  0.82500  0.10540  1.0000
  F   F12       1.0  0.84800  0.17500  0.89460  1.0000
  F   F13       1.0  0.18080  0.65710  0.07520  1.0000
  F   F14       1.0  0.81920  0.34290  0.92480  1.0000
  F   F15       1.0  0.31630  0.61510  0.94750  1.0000
  F   F16       1.0  0.68370  0.38490  0.05250  1.0000
  F   F17       1.0  0.42650  0.74590  0.85030  1.0000
  F   F18       1.0  0.57350  0.25410  0.14970  1.0000
  F   F19       1.0  0.40350  0.91540  0.87830  1.0000
  F   F20       1.0  0.59650  0.08460  0.12170  1.0000
  Fe  Fe1       1.0  0.10660  0.06130  0.66236  1.0000
  Fe  Fe2       1.0  0.89340  0.93870  0.33764  1.0000
  Fe  Fe3       1.0  0.37002  0.03921  0.35117  1.0000
  Fe  Fe4       1.0  0.62998  0.96079  0.64883  1.0000
  Pt  Pt1       1.0  0.24869  0.01495  0.01617  1.0000
  Pt  Pt2       1.0  0.75131  0.98505  0.98383  1.0000
  Tl  Tl1       1.0  0.00000  0.00000  0.00000  1.0000
  Tl  Tl2       1.0  0.50000  0.00000  0.00000  1.0000
