data_image0
_chemical_formula_structural       C12H4C8H4C8H4C20H4C8H4C8H4C8O36H4O12Cd4
_chemical_formula_sum              "C72 H28 O48 Cd4"
_cell_length_a       14.8271
_cell_length_b       14.287
_cell_length_c       27.5557
_cell_angle_alpha    90
_cell_angle_beta     97.689
_cell_angle_gamma    90

_space_group_name_H-M_alt    "P 1"
_space_group_IT_number       1

loop_
  _space_group_symop_operation_xyz
  'x, y, z'

loop_
  _atom_site_type_symbol
  _atom_site_label
  _atom_site_symmetry_multiplicity
  _atom_site_fract_x
  _atom_site_fract_y
  _atom_site_fract_z
  _atom_site_occupancy
  C   C1        1.0  0.89950  0.06810  0.78530  1.0000
  C   C2        1.0  0.60050  0.56810  0.71470  1.0000
  C   C3        1.0  0.10050  0.93190  0.21470  1.0000
  C   C4        1.0  0.39950  0.43190  0.28530  1.0000
  C   C5        1.0  0.84060  0.13420  0.81000  1.0000
  C   C6        1.0  0.65940  0.63420  0.69000  1.0000
  C   C7        1.0  0.15940  0.86580  0.19000  1.0000
  C   C8        1.0  0.34060  0.36580  0.31000  1.0000
  C   C9        1.0  0.84730  0.13780  0.86050  1.0000
  C   C10       1.0  0.65270  0.63780  0.63950  1.0000
  C   C11       1.0  0.15270  0.86220  0.13950  1.0000
  C   C12       1.0  0.34730  0.36220  0.36050  1.0000
  H   H1        1.0  0.89070  0.10150  0.87940  1.0000
  H   H2        1.0  0.60930  0.60150  0.62060  1.0000
  H   H3        1.0  0.10930  0.89850  0.12060  1.0000
  H   H4        1.0  0.39070  0.39850  0.37940  1.0000
  C   C13       1.0  0.79020  0.19480  0.88320  1.0000
  C   C14       1.0  0.70980  0.69480  0.61680  1.0000
  C   C15       1.0  0.20980  0.80520  0.11680  1.0000
  C   C16       1.0  0.29020  0.30520  0.38320  1.0000
  C   C17       1.0  0.72540  0.24610  0.85510  1.0000
  C   C18       1.0  0.77460  0.74610  0.64490  1.0000
  C   C19       1.0  0.27460  0.75390  0.14490  1.0000
  C   C20       1.0  0.22540  0.25390  0.35510  1.0000
  H   H5        1.0  0.68540  0.28250  0.87030  1.0000
  H   H6        1.0  0.81460  0.78250  0.62970  1.0000
  H   H7        1.0  0.31460  0.71750  0.12970  1.0000
  H   H8        1.0  0.18540  0.21750  0.37030  1.0000
  C   C21       1.0  0.71780  0.24510  0.80460  1.0000
  C   C22       1.0  0.78220  0.74510  0.69540  1.0000
  C   C23       1.0  0.28220  0.75490  0.19540  1.0000
  C   C24       1.0  0.21780  0.25490  0.30460  1.0000
  C   C25       1.0  0.77530  0.18870  0.78250  1.0000
  C   C26       1.0  0.72470  0.68870  0.71750  1.0000
  C   C27       1.0  0.22470  0.81130  0.21750  1.0000
  C   C28       1.0  0.27530  0.31130  0.28250  1.0000
  H   H9        1.0  0.77040  0.18700  0.74850  1.0000
  H   H10       1.0  0.72960  0.68700  0.75150  1.0000
  H   H11       1.0  0.22960  0.81300  0.25150  1.0000
  H   H12       1.0  0.27040  0.31300  0.24850  1.0000
  C   C29       1.0  0.79680  0.19760  0.93820  1.0000
  C   C30       1.0  0.70320  0.69760  0.56180  1.0000
  C   C31       1.0  0.20320  0.80240  0.06180  1.0000
  C   C32       1.0  0.29680  0.30240  0.43820  1.0000
  C   C33       1.0  0.64640  0.30490  0.77620  1.0000
  C   C34       1.0  0.85360  0.80490  0.72380  1.0000
  C   C35       1.0  0.35360  0.69510  0.22380  1.0000
  C   C36       1.0  0.14640  0.19510  0.27620  1.0000
  C   C37       1.0  0.37460  0.28410  0.71780  1.0000
  C   C38       1.0  0.12540  0.78410  0.78220  1.0000
  C   C39       1.0  0.62540  0.71590  0.28220  1.0000
  C   C40       1.0  0.87460  0.21590  0.21780  1.0000
  C   C41       1.0  0.30930  0.21420  0.69130  1.0000
  C   C42       1.0  0.19070  0.71420  0.80870  1.0000
  C   C43       1.0  0.69070  0.78580  0.30870  1.0000
  C   C44       1.0  0.80930  0.28580  0.19130  1.0000
  C   C45       1.0  0.29720  0.21650  0.64100  1.0000
  C   C46       1.0  0.20280  0.71650  0.85900  1.0000
  C   C47       1.0  0.70280  0.78350  0.35900  1.0000
  C   C48       1.0  0.79720  0.28350  0.14100  1.0000
  H   H13       1.0  0.33450  0.25450  0.62490  1.0000
  H   H14       1.0  0.16550  0.75450  0.87510  1.0000
  H   H15       1.0  0.66550  0.74550  0.37510  1.0000
  H   H16       1.0  0.83450  0.24550  0.12490  1.0000
  C   C49       1.0  0.23020  0.16300  0.61370  1.0000
  C   C50       1.0  0.26980  0.66300  0.88630  1.0000
  C   C51       1.0  0.76980  0.83700  0.38630  1.0000
  C   C52       1.0  0.73020  0.33700  0.11370  1.0000
  C   C53       1.0  0.17640  0.10470  0.63790  1.0000
  C   C54       1.0  0.32360  0.60470  0.86210  1.0000
  C   C55       1.0  0.82360  0.89530  0.36210  1.0000
  C   C56       1.0  0.67640  0.39530  0.13790  1.0000
  H   H17       1.0  0.13070  0.06940  0.62020  1.0000
  H   H18       1.0  0.36930  0.56940  0.87980  1.0000
  H   H19       1.0  0.86930  0.93060  0.37980  1.0000
  H   H20       1.0  0.63070  0.43060  0.12020  1.0000
  C   C57       1.0  0.19060  0.09900  0.68800  1.0000
  C   C58       1.0  0.30940  0.59900  0.81200  1.0000
  C   C59       1.0  0.80940  0.90100  0.31200  1.0000
  C   C60       1.0  0.69060  0.40100  0.18800  1.0000
  C   C61       1.0  0.25570  0.15440  0.71470  1.0000
  C   C62       1.0  0.24430  0.65440  0.78530  1.0000
  C   C63       1.0  0.74430  0.84560  0.28530  1.0000
  C   C64       1.0  0.75570  0.34560  0.21470  1.0000
  H   H21       1.0  0.26360  0.15150  0.74870  1.0000
  H   H22       1.0  0.23640  0.65150  0.75130  1.0000
  H   H23       1.0  0.73640  0.84850  0.25130  1.0000
  H   H24       1.0  0.76360  0.34850  0.24870  1.0000
  C   C65       1.0  0.21230  0.17300  0.55960  1.0000
  C   C66       1.0  0.28770  0.67300  0.94040  1.0000
  C   C67       1.0  0.78770  0.82700  0.44040  1.0000
  C   C68       1.0  0.71230  0.32700  0.05960  1.0000
  C   C69       1.0  0.13180  0.03790  0.71420  1.0000
  C   C70       1.0  0.36820  0.53790  0.78580  1.0000
  C   C71       1.0  0.86820  0.96210  0.28580  1.0000
  C   C72       1.0  0.63180  0.46210  0.21420  1.0000
  O   O1        1.0  0.95140  0.01460  0.81190  1.0000
  O   O2        1.0  0.54860  0.51460  0.68810  1.0000
  O   O3        1.0  0.04860  0.98540  0.18810  1.0000
  O   O4        1.0  0.45140  0.48540  0.31190  1.0000
  O   O5        1.0  0.89440  0.06820  0.74010  1.0000
  O   O6        1.0  0.60560  0.56820  0.75990  1.0000
  O   O7        1.0  0.10560  0.93180  0.25990  1.0000
  O   O8        1.0  0.39440  0.43180  0.24010  1.0000
  O   O9        1.0  0.85770  0.15410  0.96350  1.0000
  O   O10       1.0  0.64230  0.65410  0.53650  1.0000
  O   O11       1.0  0.14230  0.84590  0.03650  1.0000
  O   O12       1.0  0.35770  0.34590  0.46350  1.0000
  O   O13       1.0  0.73720  0.24810  0.95480  1.0000
  O   O14       1.0  0.76280  0.74810  0.54520  1.0000
  O   O15       1.0  0.26280  0.75190  0.04520  1.0000
  O   O16       1.0  0.23720  0.25190  0.45480  1.0000
  O   O17       1.0  0.59110  0.34660  0.79990  1.0000
  O   O18       1.0  0.90890  0.84660  0.70010  1.0000
  O   O19       1.0  0.40890  0.65340  0.20010  1.0000
  O   O20       1.0  0.09110  0.15340  0.29990  1.0000
  O   O21       1.0  0.63790  0.30830  0.73260  1.0000
  O   O22       1.0  0.86210  0.80830  0.76740  1.0000
  O   O23       1.0  0.36210  0.69170  0.26740  1.0000
  O   O24       1.0  0.13790  0.19170  0.23260  1.0000
  O   O25       1.0  0.42020  0.33350  0.69340  1.0000
  O   O26       1.0  0.07980  0.83350  0.80660  1.0000
  O   O27       1.0  0.57980  0.66650  0.30660  1.0000
  O   O28       1.0  0.92020  0.16650  0.19340  1.0000
  O   O29       1.0  0.37450  0.29200  0.76410  1.0000
  O   O30       1.0  0.12550  0.79200  0.73590  1.0000
  O   O31       1.0  0.62550  0.70800  0.23590  1.0000
  O   O32       1.0  0.87450  0.20800  0.26410  1.0000
  O   O33       1.0  0.26100  0.23680  0.54330  1.0000
  O   O34       1.0  0.23900  0.73680  0.95670  1.0000
  O   O35       1.0  0.73900  0.76320  0.45670  1.0000
  O   O36       1.0  0.76100  0.26320  0.04330  1.0000
  H   H25       1.0  0.24900  0.23990  0.51340  1.0000
  H   H26       1.0  0.25100  0.73990  0.98660  1.0000
  H   H27       1.0  0.75100  0.76010  0.48660  1.0000
  H   H28       1.0  0.74900  0.26010  0.01340  1.0000
  O   O37       1.0  0.15530  0.12800  0.53430  1.0000
  O   O38       1.0  0.34470  0.62800  0.96570  1.0000
  O   O39       1.0  0.84470  0.87200  0.46570  1.0000
  O   O40       1.0  0.65530  0.37200  0.03430  1.0000
  O   O41       1.0  0.06280  0.99980  0.68850  1.0000
  O   O42       1.0  0.43720  0.49980  0.81150  1.0000
  O   O43       1.0  0.93720  0.00020  0.31150  1.0000
  O   O44       1.0  0.56280  0.50020  0.18850  1.0000
  O   O45       1.0  0.14640  0.02870  0.75940  1.0000
  O   O46       1.0  0.35360  0.52870  0.74060  1.0000
  O   O47       1.0  0.85360  0.97130  0.24060  1.0000
  O   O48       1.0  0.64640  0.47130  0.25940  1.0000
  Cd  Cd1       1.0  0.00401  0.93078  0.75209  1.0000
  Cd  Cd2       1.0  0.49599  0.43078  0.74791  1.0000
  Cd  Cd3       1.0  0.99599  0.06922  0.24791  1.0000
  Cd  Cd4       1.0  0.50401  0.56922  0.25209  1.0000
