data_image0
_chemical_formula_structural       Bi2O4C6H2C2H2C4O2H2O2C2H2N2O4C6H2C2H2C4O4C2H2N2O4C6H2C2H2C4O4H2C2H2N2
_chemical_formula_sum              "Bi2 O24 C42 H22 N6"
_cell_length_a       8.6209
_cell_length_b       9.1518
_cell_length_c       21.858
_cell_angle_alpha    93.1
_cell_angle_beta     94.7
_cell_angle_gamma    101.28

_space_group_name_H-M_alt    "P 1"
_space_group_IT_number       1

loop_
  _space_group_symop_operation_xyz
  'x, y, z'

loop_
  _atom_site_type_symbol
  _atom_site_label
  _atom_site_symmetry_multiplicity
  _atom_site_fract_x
  _atom_site_fract_y
  _atom_site_fract_z
  _atom_site_occupancy
  Bi  Bi1       1.0  0.76762  0.27773  0.33852  1.0000
  Bi  Bi2       1.0  0.23238  0.72227  0.66148  1.0000
  O   O1        1.0  0.63110  0.38800  0.42260  1.0000
  O   O2        1.0  0.36890  0.61200  0.57740  1.0000
  O   O3        1.0  0.41700  0.38770  0.47300  1.0000
  O   O4        1.0  0.58300  0.61230  0.52700  1.0000
  C   C1        1.0  0.49180  0.33750  0.43120  1.0000
  C   C2        1.0  0.50820  0.66250  0.56880  1.0000
  C   C3        1.0  0.39720  0.20810  0.39000  1.0000
  C   C4        1.0  0.60280  0.79190  0.61000  1.0000
  C   C5        1.0  0.24250  0.14520  0.39840  1.0000
  C   C6        1.0  0.75750  0.85480  0.60160  1.0000
  H   H1        1.0  0.19120  0.18190  0.42990  1.0000
  H   H2        1.0  0.80880  0.81810  0.57010  1.0000
  C   C7        1.0  0.16430  0.02330  0.35790  1.0000
  C   C8        1.0  0.83570  0.97670  0.64210  1.0000
  H   H3        1.0  0.06040  0.97650  0.36250  1.0000
  H   H4        1.0  0.93960  0.02350  0.63750  1.0000
  C   C9        1.0  0.24410  0.97470  0.31120  1.0000
  C   C10       1.0  0.75590  0.02530  0.68880  1.0000
  C   C11       1.0  0.16380  0.84240  0.26780  1.0000
  C   C12       1.0  0.83620  0.15760  0.73220  1.0000
  O   O5        1.0  0.25510  0.81010  0.22690  1.0000
  O   O6        1.0  0.74490  0.18990  0.77310  1.0000
  H   H5        1.0  0.20770  0.73800  0.20430  1.0000
  H   H6        1.0  0.79230  0.26200  0.79570  1.0000
  O   O7        1.0  0.03270  0.77520  0.27270  1.0000
  O   O8        1.0  0.96730  0.22480  0.72730  1.0000
  C   C13       1.0  0.39720  0.04780  0.30470  1.0000
  C   C14       1.0  0.60280  0.95220  0.69530  1.0000
  H   H7        1.0  0.44860  0.01610  0.27220  1.0000
  H   H8        1.0  0.55140  0.98390  0.72780  1.0000
  N   N1        1.0  0.47450  0.16190  0.34310  1.0000
  N   N2        1.0  0.52550  0.83810  0.65690  1.0000
  O   O9        1.0  0.66080  0.23180  0.24000  1.0000
  O   O10       1.0  0.33920  0.76820  0.76000  1.0000
  O   O11       1.0  0.57410  0.31690  0.15360  1.0000
  O   O12       1.0  0.42590  0.68310  0.84640  1.0000
  C   C15       1.0  0.62540  0.33390  0.20780  1.0000
  C   C16       1.0  0.37460  0.66610  0.79220  1.0000
  C   C17       1.0  0.64490  0.48880  0.24020  1.0000
  C   C18       1.0  0.35510  0.51120  0.75980  1.0000
  C   C19       1.0  0.61990  0.60990  0.20870  1.0000
  C   C20       1.0  0.38010  0.39010  0.79130  1.0000
  H   H9        1.0  0.58730  0.59920  0.16680  1.0000
  H   H10       1.0  0.41270  0.40080  0.83320  1.0000
  C   C21       1.0  0.64480  0.74840  0.24130  1.0000
  C   C22       1.0  0.35520  0.25160  0.75870  1.0000
  H   H11       1.0  0.63440  0.83330  0.22110  1.0000
  H   H12       1.0  0.36560  0.16670  0.77890  1.0000
  C   C23       1.0  0.68510  0.75800  0.30390  1.0000
  C   C24       1.0  0.31490  0.24200  0.69610  1.0000
  C   C25       1.0  0.71360  0.90610  0.34230  1.0000
  C   C26       1.0  0.28640  0.09390  0.65770  1.0000
  O   O13       1.0  0.68700  0.90360  0.39630  1.0000
  O   O14       1.0  0.31300  0.09640  0.60370  1.0000
  O   O15       1.0  0.75880  0.01820  0.31200  1.0000
  O   O16       1.0  0.24120  0.98180  0.68800  1.0000
  C   C27       1.0  0.70660  0.63230  0.33210  1.0000
  C   C28       1.0  0.29340  0.36770  0.66790  1.0000
  H   H13       1.0  0.73370  0.63910  0.37440  1.0000
  H   H14       1.0  0.26630  0.36090  0.62560  1.0000
  N   N3        1.0  0.68950  0.49930  0.30010  1.0000
  N   N4        1.0  0.31050  0.50070  0.69990  1.0000
  O   O17       1.0  0.98580  0.30960  0.27940  1.0000
  O   O18       1.0  0.01420  0.69040  0.72060  1.0000
  O   O19       1.0  0.23890  0.37670  0.26510  1.0000
  O   O20       1.0  0.76110  0.62330  0.73490  1.0000
  C   C29       1.0  0.12110  0.38710  0.29330  1.0000
  C   C30       1.0  0.87890  0.61290  0.70670  1.0000
  C   C31       1.0  0.14680  0.50090  0.34820  1.0000
  C   C32       1.0  0.85320  0.49910  0.65180  1.0000
  C   C33       1.0  0.28830  0.60220  0.36300  1.0000
  C   C34       1.0  0.71170  0.39780  0.63700  1.0000
  H   H15       1.0  0.37390  0.60380  0.33960  1.0000
  H   H16       1.0  0.62610  0.39620  0.66040  1.0000
  C   C35       1.0  0.29790  0.70140  0.41410  1.0000
  C   C36       1.0  0.70210  0.29860  0.58590  1.0000
  H   H17       1.0  0.39120  0.77140  0.42500  1.0000
  H   H18       1.0  0.60880  0.22860  0.57500  1.0000
  C   C37       1.0  0.17250  0.69740  0.44830  1.0000
  C   C38       1.0  0.82750  0.30260  0.55170  1.0000
  C   C39       1.0  0.17780  0.79950  0.50450  1.0000
  C   C40       1.0  0.82220  0.20050  0.49550  1.0000
  O   O21       1.0  0.07780  0.77780  0.54130  1.0000
  O   O22       1.0  0.92220  0.22220  0.45870  1.0000
  O   O23       1.0  0.30300  0.90730  0.51180  1.0000
  O   O24       1.0  0.69700  0.09270  0.48820  1.0000
  H   H19       1.0  0.29740  0.96240  0.54200  1.0000
  H   H20       1.0  0.70260  0.03760  0.45800  1.0000
  C   C41       1.0  0.03340  0.59330  0.43140  1.0000
  C   C42       1.0  0.96660  0.40670  0.56860  1.0000
  H   H21       1.0  0.94900  0.58900  0.45560  1.0000
  H   H22       1.0  0.05100  0.41100  0.54440  1.0000
  N   N5        1.0  0.01680  0.49720  0.38030  1.0000
  N   N6        1.0  0.98320  0.50280  0.61970  1.0000
