data_image0
_chemical_formula_structural       Sm4S4O32C8O4H8
_chemical_formula_sum              "Sm4 S4 O36 C8 H8"
_cell_length_a       6.6189
_cell_length_b       8.6598
_cell_length_c       13.853
_cell_angle_alpha    90
_cell_angle_beta     93.3
_cell_angle_gamma    90

_space_group_name_H-M_alt    "P 1"
_space_group_IT_number       1

loop_
  _space_group_symop_operation_xyz
  'x, y, z'

loop_
  _atom_site_type_symbol
  _atom_site_label
  _atom_site_symmetry_multiplicity
  _atom_site_fract_x
  _atom_site_fract_y
  _atom_site_fract_z
  _atom_site_occupancy
  Sm  Sm1       1.0  0.24604  0.24025  0.91159  1.0000
  Sm  Sm2       1.0  0.25396  0.74025  0.58841  1.0000
  Sm  Sm3       1.0  0.75396  0.75975  0.08841  1.0000
  Sm  Sm4       1.0  0.74604  0.25975  0.41159  1.0000
  S   S1        1.0  0.76118  0.16627  0.02484  1.0000
  S   S2        1.0  0.73882  0.66627  0.47516  1.0000
  S   S3        1.0  0.23882  0.83373  0.97516  1.0000
  S   S4        1.0  0.26118  0.33373  0.52484  1.0000
  O   O1        1.0  0.56470  0.23810  0.99970  1.0000
  O   O2        1.0  0.93530  0.73810  0.50030  1.0000
  O   O3        1.0  0.43530  0.76190  0.00030  1.0000
  O   O4        1.0  0.06470  0.26190  0.49970  1.0000
  O   O5        1.0  0.91120  0.23510  0.96270  1.0000
  O   O6        1.0  0.58880  0.73510  0.53730  1.0000
  O   O7        1.0  0.08880  0.76490  0.03730  1.0000
  O   O8        1.0  0.41120  0.26490  0.46270  1.0000
  O   O9        1.0  0.44670  0.44620  0.84204  1.0000
  O   O10       1.0  0.05330  0.94620  0.65796  1.0000
  O   O11       1.0  0.55330  0.55380  0.15796  1.0000
  O   O12       1.0  0.94670  0.05380  0.34204  1.0000
  O   O13       1.0  0.23630  0.41950  0.04719  1.0000
  O   O14       1.0  0.26370  0.91950  0.45281  1.0000
  O   O15       1.0  0.76370  0.58050  0.95281  1.0000
  O   O16       1.0  0.73630  0.08050  0.54719  1.0000
  O   O17       1.0  0.04600  0.44660  0.82859  1.0000
  O   O18       1.0  0.45400  0.94660  0.67141  1.0000
  O   O19       1.0  0.95400  0.55340  0.17141  1.0000
  O   O20       1.0  0.54600  0.05340  0.32859  1.0000
  O   O21       1.0  0.75090  0.99850  0.00508  1.0000
  O   O22       1.0  0.74910  0.49850  0.49492  1.0000
  O   O23       1.0  0.24910  0.00150  0.99492  1.0000
  O   O24       1.0  0.25090  0.50150  0.50508  1.0000
  O   O25       1.0  0.04660  0.60560  0.70140  1.0000
  O   O26       1.0  0.45340  0.10560  0.79860  1.0000
  O   O27       1.0  0.95340  0.39440  0.29860  1.0000
  O   O28       1.0  0.54660  0.89440  0.20140  1.0000
  O   O29       1.0  0.45260  0.62410  0.72481  1.0000
  O   O30       1.0  0.04740  0.12410  0.77519  1.0000
  O   O31       1.0  0.54740  0.37590  0.27519  1.0000
  O   O32       1.0  0.95260  0.87590  0.22481  1.0000
  C   C1        1.0  0.36340  0.53510  0.77940  1.0000
  C   C2        1.0  0.13660  0.03510  0.72060  1.0000
  C   C3        1.0  0.63660  0.46490  0.22060  1.0000
  C   C4        1.0  0.86340  0.96490  0.27940  1.0000
  C   C5        1.0  0.13150  0.52940  0.76900  1.0000
  C   C6        1.0  0.36850  0.02940  0.73100  1.0000
  C   C7        1.0  0.86850  0.47060  0.23100  1.0000
  C   C8        1.0  0.63150  0.97060  0.26900  1.0000
  O   O33       1.0  0.81840  0.19230  0.12649  1.0000
  O   O34       1.0  0.68160  0.69230  0.37351  1.0000
  O   O35       1.0  0.18160  0.80770  0.87351  1.0000
  O   O36       1.0  0.31840  0.30770  0.62649  1.0000
  H   H1        1.0  0.34300  0.48400  0.06100  1.0000
  H   H2        1.0  0.15700  0.98400  0.43900  1.0000
  H   H3        1.0  0.65700  0.51600  0.93900  1.0000
  H   H4        1.0  0.84300  0.01600  0.56100  1.0000
  H   H5        1.0  0.14000  0.48600  0.07200  1.0000
  H   H6        1.0  0.36000  0.98600  0.42800  1.0000
  H   H7        1.0  0.86000  0.51400  0.92800  1.0000
  H   H8        1.0  0.64000  0.01400  0.57200  1.0000
