data_image0
_chemical_formula_structural       Cu8Ba4N16O48C40H8C8H8C8H8C16H24C8H24C40H8C8H8C8H8C16H24C8H24
_chemical_formula_sum              "Cu8 Ba4 N16 O48 C160 H144"
_cell_length_a       18.512
_cell_length_b       15.92
_cell_length_c       27.967
_cell_angle_alpha    90
_cell_angle_beta     90
_cell_angle_gamma    90

_space_group_name_H-M_alt    "P 1"
_space_group_IT_number       1

loop_
  _space_group_symop_operation_xyz
  'x, y, z'

loop_
  _atom_site_type_symbol
  _atom_site_label
  _atom_site_symmetry_multiplicity
  _atom_site_fract_x
  _atom_site_fract_y
  _atom_site_fract_z
  _atom_site_occupancy
  Cu  Cu1       1.0  0.25487  0.24593  0.50078  1.0000
  Cu  Cu2       1.0  0.24513  0.75407  0.00078  1.0000
  Cu  Cu3       1.0  0.75487  0.25407  0.49922  1.0000
  Cu  Cu4       1.0  0.74513  0.74593  0.99922  1.0000
  Cu  Cu5       1.0  0.74513  0.75407  0.49922  1.0000
  Cu  Cu6       1.0  0.75487  0.24593  0.99922  1.0000
  Cu  Cu7       1.0  0.24513  0.74593  0.50078  1.0000
  Cu  Cu8       1.0  0.25487  0.25407  0.00078  1.0000
  Ba  Ba1       1.0  0.00000  0.00000  0.50000  1.0000
  Ba  Ba2       1.0  0.50000  0.00000  0.00000  1.0000
  Ba  Ba3       1.0  0.50000  0.50000  0.50000  1.0000
  Ba  Ba4       1.0  0.00000  0.50000  0.00000  1.0000
  N   N1        1.0  0.21080  0.16870  0.45572  1.0000
  N   N2        1.0  0.28920  0.83130  0.95572  1.0000
  N   N3        1.0  0.71080  0.33130  0.54428  1.0000
  N   N4        1.0  0.78920  0.66870  0.04428  1.0000
  N   N5        1.0  0.78920  0.83130  0.54428  1.0000
  N   N6        1.0  0.71080  0.16870  0.04428  1.0000
  N   N7        1.0  0.28920  0.66870  0.45572  1.0000
  N   N8        1.0  0.21080  0.33130  0.95572  1.0000
  N   N9        1.0  0.19980  0.82160  0.54638  1.0000
  N   N10       1.0  0.30020  0.17840  0.04638  1.0000
  N   N11       1.0  0.69980  0.67840  0.45362  1.0000
  N   N12       1.0  0.80020  0.32160  0.95362  1.0000
  N   N13       1.0  0.80020  0.17840  0.45362  1.0000
  N   N14       1.0  0.69980  0.82160  0.95362  1.0000
  N   N15       1.0  0.30020  0.32160  0.54638  1.0000
  N   N16       1.0  0.19980  0.67840  0.04638  1.0000
  O   O1        1.0  0.17904  0.20850  0.54391  1.0000
  O   O2        1.0  0.32096  0.79150  0.04391  1.0000
  O   O3        1.0  0.67904  0.29150  0.45609  1.0000
  O   O4        1.0  0.82096  0.70850  0.95609  1.0000
  O   O5        1.0  0.82096  0.79150  0.45609  1.0000
  O   O6        1.0  0.67904  0.20850  0.95609  1.0000
  O   O7        1.0  0.32096  0.70850  0.54391  1.0000
  O   O8        1.0  0.17904  0.29150  0.04391  1.0000
  O   O9        1.0  0.08625  0.11920  0.54573  1.0000
  O   O10       1.0  0.41375  0.88080  0.04573  1.0000
  O   O11       1.0  0.58625  0.38080  0.45427  1.0000
  O   O12       1.0  0.91375  0.61920  0.95427  1.0000
  O   O13       1.0  0.91375  0.88080  0.45427  1.0000
  O   O14       1.0  0.58625  0.11920  0.95427  1.0000
  O   O15       1.0  0.41375  0.61920  0.54573  1.0000
  O   O16       1.0  0.08625  0.38080  0.04573  1.0000
  O   O17       1.0  0.11343  0.07760  0.45243  1.0000
  O   O18       1.0  0.38657  0.92240  0.95243  1.0000
  O   O19       1.0  0.61343  0.42240  0.54757  1.0000
  O   O20       1.0  0.88657  0.57760  0.04757  1.0000
  O   O21       1.0  0.88657  0.92240  0.54757  1.0000
  O   O22       1.0  0.61343  0.07760  0.04757  1.0000
  O   O23       1.0  0.38657  0.57760  0.45243  1.0000
  O   O24       1.0  0.11343  0.42240  0.95243  1.0000
  O   O25       1.0  0.17078  0.78540  0.45714  1.0000
  O   O26       1.0  0.32922  0.21460  0.95714  1.0000
  O   O27       1.0  0.67078  0.71460  0.54286  1.0000
  O   O28       1.0  0.82922  0.28540  0.04286  1.0000
  O   O29       1.0  0.82922  0.21460  0.54286  1.0000
  O   O30       1.0  0.67078  0.78540  0.04286  1.0000
  O   O31       1.0  0.32922  0.28540  0.45714  1.0000
  O   O32       1.0  0.17078  0.71460  0.95714  1.0000
  O   O33       1.0  0.07856  0.87580  0.45498  1.0000
  O   O34       1.0  0.42144  0.12420  0.95498  1.0000
  O   O35       1.0  0.57856  0.62420  0.54502  1.0000
  O   O36       1.0  0.92144  0.37580  0.04502  1.0000
  O   O37       1.0  0.92144  0.12420  0.54502  1.0000
  O   O38       1.0  0.57856  0.87580  0.04502  1.0000
  O   O39       1.0  0.42144  0.37580  0.45498  1.0000
  O   O40       1.0  0.07856  0.62420  0.95498  1.0000
  O   O41       1.0  0.09924  0.90790  0.55047  1.0000
  O   O42       1.0  0.40076  0.09210  0.05047  1.0000
  O   O43       1.0  0.59924  0.59210  0.44953  1.0000
  O   O44       1.0  0.90076  0.40790  0.94953  1.0000
  O   O45       1.0  0.90076  0.09210  0.44953  1.0000
  O   O46       1.0  0.59924  0.90790  0.94953  1.0000
  O   O47       1.0  0.40076  0.40790  0.55047  1.0000
  O   O48       1.0  0.09924  0.59210  0.05047  1.0000
  C   C1        1.0  0.13740  0.15370  0.52532  1.0000
  C   C2        1.0  0.36260  0.84630  0.02532  1.0000
  C   C3        1.0  0.63740  0.34630  0.47468  1.0000
  C   C4        1.0  0.86260  0.65370  0.97468  1.0000
  C   C5        1.0  0.86260  0.84630  0.47468  1.0000
  C   C6        1.0  0.63740  0.15370  0.97468  1.0000
  C   C7        1.0  0.36260  0.65370  0.52532  1.0000
  C   C8        1.0  0.13740  0.34630  0.02532  1.0000
  C   C9        1.0  0.15380  0.12890  0.47287  1.0000
  C   C10       1.0  0.34620  0.87110  0.97287  1.0000
  C   C11       1.0  0.65380  0.37110  0.52713  1.0000
  C   C12       1.0  0.84620  0.62890  0.02713  1.0000
  C   C13       1.0  0.84620  0.87110  0.52713  1.0000
  C   C14       1.0  0.65380  0.12890  0.02713  1.0000
  C   C15       1.0  0.34620  0.62890  0.47287  1.0000
  C   C16       1.0  0.15380  0.37110  0.97287  1.0000
  C   C17       1.0  0.23540  0.14750  0.40856  1.0000
  C   C18       1.0  0.26460  0.85250  0.90856  1.0000
  C   C19       1.0  0.73540  0.35250  0.59144  1.0000
  C   C20       1.0  0.76460  0.64750  0.09144  1.0000
  C   C21       1.0  0.76460  0.85250  0.59144  1.0000
  C   C22       1.0  0.73540  0.14750  0.09144  1.0000
  C   C23       1.0  0.26460  0.64750  0.40856  1.0000
  C   C24       1.0  0.23540  0.35250  0.90856  1.0000
  C   C25       1.0  0.26960  0.07060  0.40098  1.0000
  C   C26       1.0  0.23040  0.92940  0.90098  1.0000
  C   C27       1.0  0.76960  0.42940  0.59902  1.0000
  C   C28       1.0  0.73040  0.57060  0.09902  1.0000
  C   C29       1.0  0.73040  0.92940  0.59902  1.0000
  C   C30       1.0  0.76960  0.07060  0.09902  1.0000
  C   C31       1.0  0.23040  0.57060  0.40098  1.0000
  C   C32       1.0  0.26960  0.42940  0.90098  1.0000
  C   C33       1.0  0.29480  0.05100  0.35506  1.0000
  C   C34       1.0  0.20520  0.94900  0.85506  1.0000
  C   C35       1.0  0.79480  0.44900  0.64494  1.0000
  C   C36       1.0  0.70520  0.55100  0.14494  1.0000
  C   C37       1.0  0.70520  0.94900  0.64494  1.0000
  C   C38       1.0  0.79480  0.05100  0.14494  1.0000
  C   C39       1.0  0.20520  0.55100  0.35506  1.0000
  C   C40       1.0  0.29480  0.44900  0.85506  1.0000
  H   H1        1.0  0.31860  0.00030  0.34990  1.0000
  H   H2        1.0  0.18140  0.99970  0.84990  1.0000
  H   H3        1.0  0.81860  0.49970  0.65010  1.0000
  H   H4        1.0  0.68140  0.50030  0.15010  1.0000
  H   H5        1.0  0.68140  0.99970  0.65010  1.0000
  H   H6        1.0  0.81860  0.00030  0.15010  1.0000
  H   H7        1.0  0.18140  0.50030  0.34990  1.0000
  H   H8        1.0  0.31860  0.49970  0.84990  1.0000
  C   C41       1.0  0.28500  0.10490  0.31787  1.0000
  C   C42       1.0  0.21500  0.89510  0.81787  1.0000
  C   C43       1.0  0.78500  0.39510  0.68213  1.0000
  C   C44       1.0  0.71500  0.60490  0.18213  1.0000
  C   C45       1.0  0.71500  0.89510  0.68213  1.0000
  C   C46       1.0  0.78500  0.10490  0.18213  1.0000
  C   C47       1.0  0.21500  0.60490  0.31787  1.0000
  C   C48       1.0  0.28500  0.39510  0.81787  1.0000
  H   H9        1.0  0.30110  0.09070  0.28740  1.0000
  H   H10       1.0  0.19890  0.90930  0.78740  1.0000
  H   H11       1.0  0.80110  0.40930  0.71260  1.0000
  H   H12       1.0  0.69890  0.59070  0.21260  1.0000
  H   H13       1.0  0.69890  0.90930  0.71260  1.0000
  H   H14       1.0  0.80110  0.09070  0.21260  1.0000
  H   H15       1.0  0.19890  0.59070  0.28740  1.0000
  H   H16       1.0  0.30110  0.40930  0.78740  1.0000
  C   C49       1.0  0.25200  0.17910  0.32546  1.0000
  C   C50       1.0  0.24800  0.82090  0.82546  1.0000
  C   C51       1.0  0.75200  0.32090  0.67454  1.0000
  C   C52       1.0  0.74800  0.67910  0.17454  1.0000
  C   C53       1.0  0.74800  0.82090  0.67454  1.0000
  C   C54       1.0  0.75200  0.17910  0.17454  1.0000
  C   C55       1.0  0.24800  0.67910  0.32546  1.0000
  C   C56       1.0  0.25200  0.32090  0.82546  1.0000
  H   H17       1.0  0.24530  0.21530  0.29970  1.0000
  H   H18       1.0  0.25470  0.78470  0.79970  1.0000
  H   H19       1.0  0.74530  0.28470  0.70030  1.0000
  H   H20       1.0  0.75470  0.71530  0.20030  1.0000
  H   H21       1.0  0.75470  0.78470  0.70030  1.0000
  H   H22       1.0  0.74530  0.21530  0.20030  1.0000
  H   H23       1.0  0.25470  0.71530  0.29970  1.0000
  H   H24       1.0  0.24530  0.28470  0.79970  1.0000
  C   C57       1.0  0.22700  0.20380  0.37096  1.0000
  C   C58       1.0  0.27300  0.79620  0.87096  1.0000
  C   C59       1.0  0.72700  0.29620  0.62904  1.0000
  C   C60       1.0  0.77300  0.70380  0.12904  1.0000
  C   C61       1.0  0.77300  0.79620  0.62904  1.0000
  C   C62       1.0  0.72700  0.20380  0.12904  1.0000
  C   C63       1.0  0.27300  0.70380  0.37096  1.0000
  C   C64       1.0  0.22700  0.29620  0.87096  1.0000
  C   C65       1.0  0.28120  0.01050  0.44110  1.0000
  C   C66       1.0  0.21880  0.98950  0.94110  1.0000
  C   C67       1.0  0.78120  0.48950  0.55890  1.0000
  C   C68       1.0  0.71880  0.51050  0.05890  1.0000
  C   C69       1.0  0.71880  0.98950  0.55890  1.0000
  C   C70       1.0  0.78120  0.01050  0.05890  1.0000
  C   C71       1.0  0.21880  0.51050  0.44110  1.0000
  C   C72       1.0  0.28120  0.48950  0.94110  1.0000
  H   H25       1.0  0.30530  0.96130  0.42940  1.0000
  H   H26       1.0  0.19470  0.03870  0.92940  1.0000
  H   H27       1.0  0.80530  0.53870  0.57060  1.0000
  H   H28       1.0  0.69470  0.46130  0.07060  1.0000
  H   H29       1.0  0.69470  0.03870  0.57060  1.0000
  H   H30       1.0  0.80530  0.96130  0.07060  1.0000
  H   H31       1.0  0.19470  0.46130  0.42940  1.0000
  H   H32       1.0  0.30530  0.53870  0.92940  1.0000
  H   H33       1.0  0.23540  0.99490  0.45450  1.0000
  H   H34       1.0  0.26460  0.00510  0.95450  1.0000
  H   H35       1.0  0.73540  0.50510  0.54550  1.0000
  H   H36       1.0  0.76460  0.49490  0.04550  1.0000
  H   H37       1.0  0.76460  0.00510  0.54550  1.0000
  H   H38       1.0  0.73540  0.99490  0.04550  1.0000
  H   H39       1.0  0.26460  0.49490  0.45450  1.0000
  H   H40       1.0  0.23540  0.50510  0.95450  1.0000
  H   H41       1.0  0.31030  0.03670  0.46530  1.0000
  H   H42       1.0  0.18970  0.96330  0.96530  1.0000
  H   H43       1.0  0.81030  0.46330  0.53470  1.0000
  H   H44       1.0  0.68970  0.53670  0.03470  1.0000
  H   H45       1.0  0.68970  0.96330  0.53470  1.0000
  H   H46       1.0  0.81030  0.03670  0.03470  1.0000
  H   H47       1.0  0.18970  0.53670  0.46530  1.0000
  H   H48       1.0  0.31030  0.46330  0.96530  1.0000
  C   C73       1.0  0.19430  0.28860  0.37960  1.0000
  C   C74       1.0  0.30570  0.71140  0.87960  1.0000
  C   C75       1.0  0.69430  0.21140  0.62040  1.0000
  C   C76       1.0  0.80570  0.78860  0.12040  1.0000
  C   C77       1.0  0.80570  0.71140  0.62040  1.0000
  C   C78       1.0  0.69430  0.28860  0.12040  1.0000
  C   C79       1.0  0.30570  0.78860  0.37960  1.0000
  C   C80       1.0  0.19430  0.21140  0.87960  1.0000
  H   H49       1.0  0.18190  0.31390  0.34960  1.0000
  H   H50       1.0  0.31810  0.68610  0.84960  1.0000
  H   H51       1.0  0.68190  0.18610  0.65040  1.0000
  H   H52       1.0  0.81810  0.81390  0.15040  1.0000
  H   H53       1.0  0.81810  0.68610  0.65040  1.0000
  H   H54       1.0  0.68190  0.31390  0.15040  1.0000
  H   H55       1.0  0.31810  0.81390  0.34960  1.0000
  H   H56       1.0  0.18190  0.18610  0.84960  1.0000
  H   H57       1.0  0.22860  0.32360  0.39600  1.0000
  H   H58       1.0  0.27140  0.67640  0.89600  1.0000
  H   H59       1.0  0.72860  0.17640  0.60400  1.0000
  H   H60       1.0  0.77140  0.82360  0.10400  1.0000
  H   H61       1.0  0.77140  0.67640  0.60400  1.0000
  H   H62       1.0  0.72860  0.32360  0.10400  1.0000
  H   H63       1.0  0.27140  0.82360  0.39600  1.0000
  H   H64       1.0  0.22860  0.17640  0.89600  1.0000
  H   H65       1.0  0.15160  0.28270  0.39880  1.0000
  H   H66       1.0  0.34840  0.71730  0.89880  1.0000
  H   H67       1.0  0.65160  0.21730  0.60120  1.0000
  H   H68       1.0  0.84840  0.78270  0.10120  1.0000
  H   H69       1.0  0.84840  0.71730  0.60120  1.0000
  H   H70       1.0  0.65160  0.28270  0.10120  1.0000
  H   H71       1.0  0.34840  0.78270  0.39880  1.0000
  H   H72       1.0  0.15160  0.21730  0.89880  1.0000
  C   C81       1.0  0.12860  0.84000  0.47595  1.0000
  C   C82       1.0  0.37140  0.16000  0.97595  1.0000
  C   C83       1.0  0.62860  0.66000  0.52405  1.0000
  C   C84       1.0  0.87140  0.34000  0.02405  1.0000
  C   C85       1.0  0.87140  0.16000  0.52405  1.0000
  C   C86       1.0  0.62860  0.84000  0.02405  1.0000
  C   C87       1.0  0.37140  0.34000  0.47595  1.0000
  C   C88       1.0  0.12860  0.66000  0.97595  1.0000
  C   C89       1.0  0.14150  0.86000  0.52907  1.0000
  C   C90       1.0  0.35850  0.14000  0.02907  1.0000
  C   C91       1.0  0.64150  0.64000  0.47093  1.0000
  C   C92       1.0  0.85850  0.36000  0.97093  1.0000
  C   C93       1.0  0.85850  0.14000  0.47093  1.0000
  C   C94       1.0  0.64150  0.86000  0.97093  1.0000
  C   C95       1.0  0.35850  0.36000  0.52907  1.0000
  C   C96       1.0  0.14150  0.64000  0.02907  1.0000
  C   C97       1.0  0.21940  0.83920  0.59475  1.0000
  C   C98       1.0  0.28060  0.16080  0.09475  1.0000
  C   C99       1.0  0.71940  0.66080  0.40525  1.0000
  C   C100      1.0  0.78060  0.33920  0.90525  1.0000
  C   C101      1.0  0.78060  0.16080  0.40525  1.0000
  C   C102      1.0  0.71940  0.83920  0.90525  1.0000
  C   C103      1.0  0.28060  0.33920  0.59475  1.0000
  C   C104      1.0  0.21940  0.66080  0.09475  1.0000
  C   C105      1.0  0.20080  0.78280  0.63090  1.0000
  C   C106      1.0  0.29920  0.21720  0.13090  1.0000
  C   C107      1.0  0.70080  0.71720  0.36910  1.0000
  C   C108      1.0  0.79920  0.28280  0.86910  1.0000
  C   C109      1.0  0.79920  0.21720  0.36910  1.0000
  C   C110      1.0  0.70080  0.78280  0.86910  1.0000
  C   C111      1.0  0.29920  0.28280  0.63090  1.0000
  C   C112      1.0  0.20080  0.71720  0.13090  1.0000
  C   C113      1.0  0.22150  0.80190  0.67803  1.0000
  C   C114      1.0  0.27850  0.19810  0.17803  1.0000
  C   C115      1.0  0.72150  0.69810  0.32197  1.0000
  C   C116      1.0  0.77850  0.30190  0.82197  1.0000
  C   C117      1.0  0.77850  0.19810  0.32197  1.0000
  C   C118      1.0  0.72150  0.80190  0.82197  1.0000
  C   C119      1.0  0.27850  0.30190  0.67803  1.0000
  C   C120      1.0  0.22150  0.69810  0.17803  1.0000
  H   H73       1.0  0.21020  0.76490  0.70260  1.0000
  H   H74       1.0  0.28980  0.23510  0.20260  1.0000
  H   H75       1.0  0.71020  0.73510  0.29740  1.0000
  H   H76       1.0  0.78980  0.26490  0.79740  1.0000
  H   H77       1.0  0.78980  0.23510  0.29740  1.0000
  H   H78       1.0  0.71020  0.76490  0.79740  1.0000
  H   H79       1.0  0.28980  0.26490  0.70260  1.0000
  H   H80       1.0  0.21020  0.73510  0.20260  1.0000
  C   C121      1.0  0.25760  0.87340  0.68791  1.0000
  C   C122      1.0  0.24240  0.12660  0.18791  1.0000
  C   C123      1.0  0.75760  0.62660  0.31209  1.0000
  C   C124      1.0  0.74240  0.37340  0.81209  1.0000
  C   C125      1.0  0.74240  0.12660  0.31209  1.0000
  C   C126      1.0  0.75760  0.87340  0.81209  1.0000
  C   C127      1.0  0.24240  0.37340  0.68791  1.0000
  C   C128      1.0  0.25760  0.62660  0.18791  1.0000
  H   H81       1.0  0.27030  0.88520  0.71940  1.0000
  H   H82       1.0  0.22970  0.11480  0.21940  1.0000
  H   H83       1.0  0.77030  0.61480  0.28060  1.0000
  H   H84       1.0  0.72970  0.38520  0.78060  1.0000
  H   H85       1.0  0.72970  0.11480  0.28060  1.0000
  H   H86       1.0  0.77030  0.88520  0.78060  1.0000
  H   H87       1.0  0.22970  0.38520  0.71940  1.0000
  H   H88       1.0  0.27030  0.61480  0.21940  1.0000
  C   C129      1.0  0.27610  0.92940  0.65251  1.0000
  C   C130      1.0  0.22390  0.07060  0.15251  1.0000
  C   C131      1.0  0.77610  0.57060  0.34749  1.0000
  C   C132      1.0  0.72390  0.42940  0.84749  1.0000
  C   C133      1.0  0.72390  0.07060  0.34749  1.0000
  C   C134      1.0  0.77610  0.92940  0.84749  1.0000
  C   C135      1.0  0.22390  0.42940  0.65251  1.0000
  C   C136      1.0  0.27610  0.57060  0.15251  1.0000
  H   H89       1.0  0.30170  0.97780  0.66010  1.0000
  H   H90       1.0  0.19830  0.02220  0.16010  1.0000
  H   H91       1.0  0.80170  0.52220  0.33990  1.0000
  H   H92       1.0  0.69830  0.47780  0.83990  1.0000
  H   H93       1.0  0.69830  0.02220  0.33990  1.0000
  H   H94       1.0  0.80170  0.97780  0.83990  1.0000
  H   H95       1.0  0.19830  0.47780  0.66010  1.0000
  H   H96       1.0  0.30170  0.52220  0.16010  1.0000
  C   C137      1.0  0.25640  0.91340  0.60498  1.0000
  C   C138      1.0  0.24360  0.08660  0.10498  1.0000
  C   C139      1.0  0.75640  0.58660  0.39502  1.0000
  C   C140      1.0  0.74360  0.41340  0.89502  1.0000
  C   C141      1.0  0.74360  0.08660  0.39502  1.0000
  C   C142      1.0  0.75640  0.91340  0.89502  1.0000
  C   C143      1.0  0.24360  0.41340  0.60498  1.0000
  C   C144      1.0  0.25640  0.58660  0.10498  1.0000
  C   C145      1.0  0.16120  0.70310  0.61910  1.0000
  C   C146      1.0  0.33880  0.29690  0.11910  1.0000
  C   C147      1.0  0.66120  0.79690  0.38090  1.0000
  C   C148      1.0  0.83880  0.20310  0.88090  1.0000
  C   C149      1.0  0.83880  0.29690  0.38090  1.0000
  C   C150      1.0  0.66120  0.70310  0.88090  1.0000
  C   C151      1.0  0.33880  0.20310  0.61910  1.0000
  C   C152      1.0  0.16120  0.79690  0.11910  1.0000
  H   H97       1.0  0.15260  0.67190  0.64790  1.0000
  H   H98       1.0  0.34740  0.32810  0.14790  1.0000
  H   H99       1.0  0.65260  0.82810  0.35210  1.0000
  H   H100      1.0  0.84740  0.17190  0.85210  1.0000
  H   H101      1.0  0.84740  0.32810  0.35210  1.0000
  H   H102      1.0  0.65260  0.67190  0.85210  1.0000
  H   H103      1.0  0.34740  0.17190  0.64790  1.0000
  H   H104      1.0  0.15260  0.82810  0.14790  1.0000
  H   H105      1.0  0.11580  0.71660  0.60430  1.0000
  H   H106      1.0  0.38420  0.28340  0.10430  1.0000
  H   H107      1.0  0.61580  0.78340  0.39570  1.0000
  H   H108      1.0  0.88420  0.21660  0.89570  1.0000
  H   H109      1.0  0.88420  0.28340  0.39570  1.0000
  H   H110      1.0  0.61580  0.71660  0.89570  1.0000
  H   H111      1.0  0.38420  0.21660  0.60430  1.0000
  H   H112      1.0  0.11580  0.78340  0.10430  1.0000
  H   H113      1.0  0.18980  0.67000  0.59750  1.0000
  H   H114      1.0  0.31020  0.33000  0.09750  1.0000
  H   H115      1.0  0.68980  0.83000  0.40250  1.0000
  H   H116      1.0  0.81020  0.17000  0.90250  1.0000
  H   H117      1.0  0.81020  0.33000  0.40250  1.0000
  H   H118      1.0  0.68980  0.67000  0.90250  1.0000
  H   H119      1.0  0.31020  0.17000  0.59750  1.0000
  H   H120      1.0  0.18980  0.83000  0.09750  1.0000
  C   C153      1.0  0.27560  0.97380  0.56630  1.0000
  C   C154      1.0  0.22440  0.02620  0.06630  1.0000
  C   C155      1.0  0.77560  0.52620  0.43370  1.0000
  C   C156      1.0  0.72440  0.47380  0.93370  1.0000
  C   C157      1.0  0.72440  0.02620  0.43370  1.0000
  C   C158      1.0  0.77560  0.97380  0.93370  1.0000
  C   C159      1.0  0.22440  0.47380  0.56630  1.0000
  C   C160      1.0  0.27560  0.52620  0.06630  1.0000
  H   H121      1.0  0.30090  0.02080  0.57980  1.0000
  H   H122      1.0  0.19910  0.97920  0.07980  1.0000
  H   H123      1.0  0.80090  0.47920  0.42020  1.0000
  H   H124      1.0  0.69910  0.52080  0.92020  1.0000
  H   H125      1.0  0.69910  0.97920  0.42020  1.0000
  H   H126      1.0  0.80090  0.02080  0.92020  1.0000
  H   H127      1.0  0.19910  0.52080  0.57980  1.0000
  H   H128      1.0  0.30090  0.47920  0.07980  1.0000
  H   H129      1.0  0.30590  0.94630  0.54330  1.0000
  H   H130      1.0  0.19410  0.05370  0.04330  1.0000
  H   H131      1.0  0.80590  0.55370  0.45670  1.0000
  H   H132      1.0  0.69410  0.44630  0.95670  1.0000
  H   H133      1.0  0.69410  0.05370  0.45670  1.0000
  H   H134      1.0  0.80590  0.94630  0.95670  1.0000
  H   H135      1.0  0.19410  0.44630  0.54330  1.0000
  H   H136      1.0  0.30590  0.55370  0.04330  1.0000
  H   H137      1.0  0.23230  0.99310  0.55090  1.0000
  H   H138      1.0  0.26770  0.00690  0.05090  1.0000
  H   H139      1.0  0.73230  0.50690  0.44910  1.0000
  H   H140      1.0  0.76770  0.49310  0.94910  1.0000
  H   H141      1.0  0.76770  0.00690  0.44910  1.0000
  H   H142      1.0  0.73230  0.99310  0.94910  1.0000
  H   H143      1.0  0.26770  0.49310  0.55090  1.0000
  H   H144      1.0  0.23230  0.50690  0.05090  1.0000
