data_image0
_chemical_formula_structural       U2O18C10H2C4H2C4H2C2H4C4H2C2H2C4H2C2H2
_chemical_formula_sum              "U2 O18 C32 H18"
_cell_length_a       9.8954
_cell_length_b       10.12
_cell_length_c       11.7236
_cell_angle_alpha    87.579
_cell_angle_beta     79.274
_cell_angle_gamma    71.969

_space_group_name_H-M_alt    "P 1"
_space_group_IT_number       1

loop_
  _space_group_symop_operation_xyz
  'x, y, z'

loop_
  _atom_site_type_symbol
  _atom_site_label
  _atom_site_symmetry_multiplicity
  _atom_site_fract_x
  _atom_site_fract_y
  _atom_site_fract_z
  _atom_site_occupancy
  U   U1        1.0  0.12716  0.98578  0.24294  1.0000
  U   U2        1.0  0.87284  0.01422  0.75706  1.0000
  O   O1        1.0  0.10650  0.13020  0.15230  1.0000
  O   O2        1.0  0.89350  0.86980  0.84770  1.0000
  O   O3        1.0  0.14670  0.83920  0.33180  1.0000
  O   O4        1.0  0.85330  0.16080  0.66820  1.0000
  O   O5        1.0  0.18850  0.11500  0.38920  1.0000
  O   O6        1.0  0.81150  0.88500  0.61080  1.0000
  O   O7        1.0  0.36590  0.99280  0.25990  1.0000
  O   O8        1.0  0.63410  0.00720  0.74010  1.0000
  O   O9        1.0  0.87150  0.99260  0.24950  1.0000
  O   O10       1.0  0.12850  0.00740  0.75050  1.0000
  O   O11       1.0  0.91240  0.12310  0.37510  1.0000
  O   O12       1.0  0.08760  0.87690  0.62490  1.0000
  O   O13       1.0  0.10790  0.84710  0.07760  1.0000
  O   O14       1.0  0.89210  0.15290  0.92240  1.0000
  O   O15       1.0  0.32150  0.84580  0.09620  1.0000
  O   O16       1.0  0.67850  0.15420  0.90380  1.0000
  O   O17       1.0  0.42070  0.36680  0.61610  1.0000
  O   O18       1.0  0.57930  0.63320  0.38390  1.0000
  C   C1        1.0  0.32070  0.07640  0.34640  1.0000
  C   C2        1.0  0.67930  0.92360  0.65360  1.0000
  C   C3        1.0  0.82640  0.07760  0.33460  1.0000
  C   C4        1.0  0.17360  0.92240  0.66540  1.0000
  C   C5        1.0  0.24330  0.80460  0.04430  1.0000
  C   C6        1.0  0.75670  0.19540  0.95570  1.0000
  C   C7        1.0  0.42390  0.12960  0.39280  1.0000
  C   C8        1.0  0.57610  0.87040  0.60720  1.0000
  C   C9        1.0  0.56980  0.08170  0.34260  1.0000
  C   C10       1.0  0.43020  0.91830  0.65740  1.0000
  H   H1        1.0  0.60100  0.01880  0.28040  1.0000
  H   H2        1.0  0.39900  0.98120  0.71960  1.0000
  C   C11       1.0  0.66840  0.12900  0.38650  1.0000
  C   C12       1.0  0.33160  0.87100  0.61350  1.0000
  C   C13       1.0  0.62190  0.22330  0.47900  1.0000
  C   C14       1.0  0.37810  0.77670  0.52100  1.0000
  H   H3        1.0  0.68790  0.25400  0.50860  1.0000
  H   H4        1.0  0.31210  0.74600  0.49140  1.0000
  C   C15       1.0  0.47580  0.27110  0.52670  1.0000
  C   C16       1.0  0.52420  0.72890  0.47330  1.0000
  C   C17       1.0  0.37730  0.22380  0.48450  1.0000
  C   C18       1.0  0.62270  0.77620  0.51550  1.0000
  H   H5        1.0  0.27980  0.25540  0.51790  1.0000
  H   H6        1.0  0.72020  0.74460  0.48210  1.0000
  C   C19       1.0  0.52100  0.41510  0.66220  1.0000
  C   C20       1.0  0.47900  0.58490  0.33780  1.0000
  H   H7        1.0  0.57290  0.45840  0.60140  1.0000
  H   H8        1.0  0.42710  0.54160  0.39860  1.0000
  H   H9        1.0  0.59060  0.33730  0.69130  1.0000
  H   H10       1.0  0.40940  0.66270  0.30870  1.0000
  C   C21       1.0  0.44100  0.51870  0.75900  1.0000
  C   C22       1.0  0.55900  0.48130  0.24100  1.0000
  C   C23       1.0  0.52280  0.55880  0.82670  1.0000
  C   C24       1.0  0.47720  0.44120  0.17330  1.0000
  H   H11       1.0  0.62300  0.52160  0.81060  1.0000
  H   H12       1.0  0.37700  0.47840  0.18940  1.0000
  C   C25       1.0  0.45930  0.65180  0.91650  1.0000
  C   C26       1.0  0.54070  0.34820  0.08350  1.0000
  H   H13       1.0  0.51640  0.67810  0.96020  1.0000
  H   H14       1.0  0.48360  0.32190  0.03980  1.0000
  C   C27       1.0  0.31050  0.70730  0.94270  1.0000
  C   C28       1.0  0.68950  0.29270  0.05730  1.0000
  C   C29       1.0  0.23030  0.66970  0.87480  1.0000
  C   C30       1.0  0.76970  0.33030  0.12520  1.0000
  H   H15       1.0  0.13010  0.70680  0.89060  1.0000
  H   H16       1.0  0.86990  0.29320  0.10940  1.0000
  C   C31       1.0  0.29580  0.57690  0.78240  1.0000
  C   C32       1.0  0.70420  0.42310  0.21760  1.0000
  H   H17       1.0  0.23920  0.55450  0.73590  1.0000
  H   H18       1.0  0.76080  0.44550  0.26410  1.0000
