data_image0
_chemical_formula_structural       U8O32C24H8C8H8C8H8C16O16C8H8O16C24H8C4H4C4H4
_chemical_formula_sum              "U8 O64 C96 H48"
_cell_length_a       8.178
_cell_length_b       18.178
_cell_length_c       21.452
_cell_angle_alpha    90
_cell_angle_beta     96.06
_cell_angle_gamma    90

_space_group_name_H-M_alt    "P 1"
_space_group_IT_number       1

loop_
  _space_group_symop_operation_xyz
  'x, y, z'

loop_
  _atom_site_type_symbol
  _atom_site_label
  _atom_site_symmetry_multiplicity
  _atom_site_fract_x
  _atom_site_fract_y
  _atom_site_fract_z
  _atom_site_occupancy
  U   U1        1.0  0.42980  0.31056  0.62065  1.0000
  U   U2        1.0  0.57020  0.31056  0.87935  1.0000
  U   U3        1.0  0.92980  0.81056  0.62065  1.0000
  U   U4        1.0  0.07020  0.81056  0.87935  1.0000
  U   U5        1.0  0.57020  0.68944  0.37935  1.0000
  U   U6        1.0  0.42980  0.68944  0.12065  1.0000
  U   U7        1.0  0.07020  0.18944  0.37935  1.0000
  U   U8        1.0  0.92980  0.18944  0.12065  1.0000
  O   O1        1.0  0.50200  0.32930  0.54710  1.0000
  O   O2        1.0  0.49800  0.32930  0.95290  1.0000
  O   O3        1.0  0.00200  0.82930  0.54710  1.0000
  O   O4        1.0  0.99800  0.82930  0.95290  1.0000
  O   O5        1.0  0.49800  0.67070  0.45290  1.0000
  O   O6        1.0  0.50200  0.67070  0.04710  1.0000
  O   O7        1.0  0.99800  0.17070  0.45290  1.0000
  O   O8        1.0  0.00200  0.17070  0.04710  1.0000
  O   O9        1.0  0.35800  0.29110  0.69260  1.0000
  O   O10       1.0  0.64200  0.29110  0.80740  1.0000
  O   O11       1.0  0.85800  0.79110  0.69260  1.0000
  O   O12       1.0  0.14200  0.79110  0.80740  1.0000
  O   O13       1.0  0.64200  0.70890  0.30740  1.0000
  O   O14       1.0  0.35800  0.70890  0.19260  1.0000
  O   O15       1.0  0.14200  0.20890  0.30740  1.0000
  O   O16       1.0  0.85800  0.20890  0.19260  1.0000
  O   O17       1.0  0.29010  0.43110  0.61510  1.0000
  O   O18       1.0  0.70990  0.43110  0.88490  1.0000
  O   O19       1.0  0.79010  0.93110  0.61510  1.0000
  O   O20       1.0  0.20990  0.93110  0.88490  1.0000
  O   O21       1.0  0.70990  0.56890  0.38490  1.0000
  O   O22       1.0  0.29010  0.56890  0.11510  1.0000
  O   O23       1.0  0.20990  0.06890  0.38490  1.0000
  O   O24       1.0  0.79010  0.06890  0.11510  1.0000
  O   O25       1.0  0.13770  0.33700  0.58060  1.0000
  O   O26       1.0  0.86230  0.33700  0.91940  1.0000
  O   O27       1.0  0.63770  0.83700  0.58060  1.0000
  O   O28       1.0  0.36230  0.83700  0.91940  1.0000
  O   O29       1.0  0.86230  0.66300  0.41940  1.0000
  O   O30       1.0  0.13770  0.66300  0.08060  1.0000
  O   O31       1.0  0.36230  0.16300  0.41940  1.0000
  O   O32       1.0  0.63770  0.16300  0.08060  1.0000
  C   C1        1.0  0.15000  0.40470  0.59200  1.0000
  C   C2        1.0  0.85000  0.40470  0.90800  1.0000
  C   C3        1.0  0.65000  0.90470  0.59200  1.0000
  C   C4        1.0  0.35000  0.90470  0.90800  1.0000
  C   C5        1.0  0.85000  0.59530  0.40800  1.0000
  C   C6        1.0  0.15000  0.59530  0.09200  1.0000
  C   C7        1.0  0.35000  0.09530  0.40800  1.0000
  C   C8        1.0  0.65000  0.09530  0.09200  1.0000
  C   C9        1.0  0.00900  0.45630  0.57650  1.0000
  C   C10       1.0  0.99100  0.45630  0.92350  1.0000
  C   C11       1.0  0.50900  0.95630  0.57650  1.0000
  C   C12       1.0  0.49100  0.95630  0.92350  1.0000
  C   C13       1.0  0.99100  0.54370  0.42350  1.0000
  C   C14       1.0  0.00900  0.54370  0.07650  1.0000
  C   C15       1.0  0.49100  0.04370  0.42350  1.0000
  C   C16       1.0  0.50900  0.04370  0.07650  1.0000
  C   C17       1.0  0.85800  0.42780  0.55140  1.0000
  C   C18       1.0  0.14200  0.42780  0.94860  1.0000
  C   C19       1.0  0.35800  0.92780  0.55140  1.0000
  C   C20       1.0  0.64200  0.92780  0.94860  1.0000
  C   C21       1.0  0.14200  0.57220  0.44860  1.0000
  C   C22       1.0  0.85800  0.57220  0.05140  1.0000
  C   C23       1.0  0.64200  0.07220  0.44860  1.0000
  C   C24       1.0  0.35800  0.07220  0.05140  1.0000
  H   H1        1.0  0.84783  0.37762  0.54349  1.0000
  H   H2        1.0  0.15217  0.37762  0.95651  1.0000
  H   H3        1.0  0.34783  0.87762  0.54349  1.0000
  H   H4        1.0  0.65217  0.87762  0.95651  1.0000
  H   H5        1.0  0.15217  0.62238  0.45651  1.0000
  H   H6        1.0  0.84783  0.62238  0.04349  1.0000
  H   H7        1.0  0.65217  0.12238  0.45651  1.0000
  H   H8        1.0  0.34783  0.12238  0.04349  1.0000
  C   C25       1.0  0.72200  0.47470  0.53800  1.0000
  C   C26       1.0  0.27800  0.47470  0.96200  1.0000
  C   C27       1.0  0.22200  0.97470  0.53800  1.0000
  C   C28       1.0  0.77800  0.97470  0.96200  1.0000
  C   C29       1.0  0.27800  0.52530  0.46200  1.0000
  C   C30       1.0  0.72200  0.52530  0.03800  1.0000
  C   C31       1.0  0.77800  0.02530  0.46200  1.0000
  C   C32       1.0  0.22200  0.02530  0.03800  1.0000
  H   H9        1.0  0.62107  0.45603  0.52113  1.0000
  H   H10       1.0  0.37893  0.45603  0.97887  1.0000
  H   H11       1.0  0.12107  0.95603  0.52113  1.0000
  H   H12       1.0  0.87893  0.95603  0.97887  1.0000
  H   H13       1.0  0.37893  0.54397  0.47887  1.0000
  H   H14       1.0  0.62107  0.54397  0.02113  1.0000
  H   H15       1.0  0.87893  0.04397  0.47887  1.0000
  H   H16       1.0  0.12107  0.04397  0.02113  1.0000
  C   C33       1.0  0.74100  0.54940  0.55040  1.0000
  C   C34       1.0  0.25900  0.54940  0.94960  1.0000
  C   C35       1.0  0.24100  0.04940  0.55040  1.0000
  C   C36       1.0  0.75900  0.04940  0.94960  1.0000
  C   C37       1.0  0.25900  0.45060  0.44960  1.0000
  C   C38       1.0  0.74100  0.45060  0.05040  1.0000
  C   C39       1.0  0.75900  0.95060  0.44960  1.0000
  C   C40       1.0  0.24100  0.95060  0.05040  1.0000
  H   H17       1.0  0.65135  0.58041  0.54190  1.0000
  H   H18       1.0  0.34865  0.58041  0.95810  1.0000
  H   H19       1.0  0.15135  0.08041  0.54190  1.0000
  H   H20       1.0  0.84865  0.08041  0.95810  1.0000
  H   H21       1.0  0.34865  0.41959  0.45810  1.0000
  H   H22       1.0  0.65135  0.41959  0.04190  1.0000
  H   H23       1.0  0.84865  0.91959  0.45810  1.0000
  H   H24       1.0  0.15135  0.91959  0.04190  1.0000
  C   C41       1.0  0.88700  0.57880  0.57440  1.0000
  C   C42       1.0  0.11300  0.57880  0.92560  1.0000
  C   C43       1.0  0.38700  0.07880  0.57440  1.0000
  C   C44       1.0  0.61300  0.07880  0.92560  1.0000
  C   C45       1.0  0.11300  0.42120  0.42560  1.0000
  C   C46       1.0  0.88700  0.42120  0.07440  1.0000
  C   C47       1.0  0.61300  0.92120  0.42560  1.0000
  C   C48       1.0  0.38700  0.92120  0.07440  1.0000
  C   C49       1.0  0.90700  0.65890  0.58990  1.0000
  C   C50       1.0  0.09300  0.65890  0.91010  1.0000
  C   C51       1.0  0.40700  0.15890  0.58990  1.0000
  C   C52       1.0  0.59300  0.15890  0.91010  1.0000
  C   C53       1.0  0.09300  0.34110  0.41010  1.0000
  C   C54       1.0  0.90700  0.34110  0.08990  1.0000
  C   C55       1.0  0.59300  0.84110  0.41010  1.0000
  C   C56       1.0  0.40700  0.84110  0.08990  1.0000
  O   O33       1.0  0.04350  0.68600  0.61250  1.0000
  O   O34       1.0  0.95650  0.68600  0.88750  1.0000
  O   O35       1.0  0.54350  0.18600  0.61250  1.0000
  O   O36       1.0  0.45650  0.18600  0.88750  1.0000
  O   O37       1.0  0.95650  0.31400  0.38750  1.0000
  O   O38       1.0  0.04350  0.31400  0.11250  1.0000
  O   O39       1.0  0.45650  0.81400  0.38750  1.0000
  O   O40       1.0  0.54350  0.81400  0.11250  1.0000
  O   O41       1.0  0.78200  0.70100  0.58080  1.0000
  O   O42       1.0  0.21800  0.70100  0.91920  1.0000
  O   O43       1.0  0.28200  0.20100  0.58080  1.0000
  O   O44       1.0  0.71800  0.20100  0.91920  1.0000
  O   O45       1.0  0.21800  0.29900  0.41920  1.0000
  O   O46       1.0  0.78200  0.29900  0.08080  1.0000
  O   O47       1.0  0.71800  0.79900  0.41920  1.0000
  O   O48       1.0  0.28200  0.79900  0.08080  1.0000
  C   C57       1.0  0.02600  0.53010  0.59100  1.0000
  C   C58       1.0  0.97400  0.53010  0.90900  1.0000
  C   C59       1.0  0.52600  0.03010  0.59100  1.0000
  C   C60       1.0  0.47400  0.03010  0.90900  1.0000
  C   C61       1.0  0.97400  0.46990  0.40900  1.0000
  C   C62       1.0  0.02600  0.46990  0.09100  1.0000
  C   C63       1.0  0.47400  0.96990  0.40900  1.0000
  C   C64       1.0  0.52600  0.96990  0.09100  1.0000
  H   H25       1.0  0.12398  0.54820  0.61095  1.0000
  H   H26       1.0  0.87602  0.54820  0.88905  1.0000
  H   H27       1.0  0.62398  0.04820  0.61095  1.0000
  H   H28       1.0  0.37602  0.04820  0.88905  1.0000
  H   H29       1.0  0.87602  0.45180  0.38905  1.0000
  H   H30       1.0  0.12398  0.45180  0.11095  1.0000
  H   H31       1.0  0.37602  0.95180  0.38905  1.0000
  H   H32       1.0  0.62398  0.95180  0.11095  1.0000
  O   O49       1.0  0.58840  0.40880  0.67250  1.0000
  O   O50       1.0  0.41160  0.40880  0.82750  1.0000
  O   O51       1.0  0.08840  0.90880  0.67250  1.0000
  O   O52       1.0  0.91160  0.90880  0.82750  1.0000
  O   O53       1.0  0.41160  0.59120  0.32750  1.0000
  O   O54       1.0  0.58840  0.59120  0.17250  1.0000
  O   O55       1.0  0.91160  0.09120  0.32750  1.0000
  O   O56       1.0  0.08840  0.09120  0.17250  1.0000
  O   O57       1.0  0.72290  0.30510  0.66970  1.0000
  O   O58       1.0  0.27710  0.30510  0.83030  1.0000
  O   O59       1.0  0.22290  0.80510  0.66970  1.0000
  O   O60       1.0  0.77710  0.80510  0.83030  1.0000
  O   O61       1.0  0.27710  0.69490  0.33030  1.0000
  O   O62       1.0  0.72290  0.69490  0.16970  1.0000
  O   O63       1.0  0.77710  0.19490  0.33030  1.0000
  O   O64       1.0  0.22290  0.19490  0.16970  1.0000
  C   C65       1.0  0.71800  0.37290  0.68660  1.0000
  C   C66       1.0  0.28200  0.37290  0.81340  1.0000
  C   C67       1.0  0.21800  0.87290  0.68660  1.0000
  C   C68       1.0  0.78200  0.87290  0.81340  1.0000
  C   C69       1.0  0.28200  0.62710  0.31340  1.0000
  C   C70       1.0  0.71800  0.62710  0.18660  1.0000
  C   C71       1.0  0.78200  0.12710  0.31340  1.0000
  C   C72       1.0  0.21800  0.12710  0.18660  1.0000
  C   C73       1.0  0.86200  0.41120  0.72060  1.0000
  C   C74       1.0  0.13800  0.41120  0.77940  1.0000
  C   C75       1.0  0.36200  0.91120  0.72060  1.0000
  C   C76       1.0  0.63800  0.91120  0.77940  1.0000
  C   C77       1.0  0.13800  0.58880  0.27940  1.0000
  C   C78       1.0  0.86200  0.58880  0.22060  1.0000
  C   C79       1.0  0.63800  0.08880  0.27940  1.0000
  C   C80       1.0  0.36200  0.08880  0.22060  1.0000
  C   C81       1.0  0.86500  0.48560  0.72130  1.0000
  C   C82       1.0  0.13500  0.48560  0.77870  1.0000
  C   C83       1.0  0.36500  0.98560  0.72130  1.0000
  C   C84       1.0  0.63500  0.98560  0.77870  1.0000
  C   C85       1.0  0.13500  0.51440  0.27870  1.0000
  C   C86       1.0  0.86500  0.51440  0.22130  1.0000
  C   C87       1.0  0.63500  0.01440  0.27870  1.0000
  C   C88       1.0  0.36500  0.01440  0.22130  1.0000
  H   H33       1.0  0.77615  0.51194  0.70215  1.0000
  H   H34       1.0  0.22385  0.51194  0.79785  1.0000
  H   H35       1.0  0.27615  0.01194  0.70215  1.0000
  H   H36       1.0  0.72385  0.01194  0.79785  1.0000
  H   H37       1.0  0.22385  0.48806  0.29785  1.0000
  H   H38       1.0  0.77615  0.48806  0.20215  1.0000
  H   H39       1.0  0.72385  0.98806  0.29785  1.0000
  H   H40       1.0  0.27615  0.98806  0.20215  1.0000
  C   C89       1.0  0.00000  0.52300  0.75000  1.0000
  C   C90       1.0  0.50000  0.02300  0.75000  1.0000
  C   C91       1.0  0.00000  0.47700  0.25000  1.0000
  C   C92       1.0  0.50000  0.97700  0.25000  1.0000
  H   H41       1.0  0.00000  0.57415  0.75000  1.0000
  H   H42       1.0  0.50000  0.07415  0.75000  1.0000
  H   H43       1.0  0.00000  0.42585  0.25000  1.0000
  H   H44       1.0  0.50000  0.92585  0.25000  1.0000
  C   C93       1.0  0.00000  0.36950  0.75000  1.0000
  C   C94       1.0  0.50000  0.86950  0.75000  1.0000
  C   C95       1.0  0.00000  0.63050  0.25000  1.0000
  C   C96       1.0  0.50000  0.13050  0.25000  1.0000
  H   H45       1.0  0.00000  0.31834  0.75000  1.0000
  H   H46       1.0  0.50000  0.81834  0.75000  1.0000
  H   H47       1.0  0.00000  0.68166  0.25000  1.0000
  H   H48       1.0  0.50000  0.18166  0.25000  1.0000
