data_image0
_chemical_formula_structural       Pr2O16C6H2C10H2C4
_chemical_formula_sum              "Pr2 O16 C20 H4"
_cell_length_a       7.396
_cell_length_b       10.066
_cell_length_c       11.205
_cell_angle_alpha    101.871
_cell_angle_beta     106.13
_cell_angle_gamma    109.589

_space_group_name_H-M_alt    "P 1"
_space_group_IT_number       1

loop_
  _space_group_symop_operation_xyz
  'x, y, z'

loop_
  _atom_site_type_symbol
  _atom_site_label
  _atom_site_symmetry_multiplicity
  _atom_site_fract_x
  _atom_site_fract_y
  _atom_site_fract_z
  _atom_site_occupancy
  Pr  Pr1       1.0  0.82335  0.55560  0.58507  1.0000
  Pr  Pr2       1.0  0.17665  0.44440  0.41493  1.0000
  O   O1        1.0  0.68820  0.40200  0.73670  1.0000
  O   O2        1.0  0.31180  0.59800  0.26330  1.0000
  O   O3        1.0  0.76310  0.64320  0.79100  1.0000
  O   O4        1.0  0.23690  0.35680  0.20900  1.0000
  O   O5        1.0  0.10290  0.53630  0.74940  1.0000
  O   O6        1.0  0.89710  0.46370  0.25060  1.0000
  O   O7        1.0  0.29570  0.46310  0.65120  1.0000
  O   O8        1.0  0.70430  0.53690  0.34880  1.0000
  O   O9        1.0  0.52540  0.64750  0.53970  1.0000
  O   O10       1.0  0.47460  0.35250  0.46030  1.0000
  O   O11       1.0  0.83830  0.81210  0.58150  1.0000
  O   O12       1.0  0.16170  0.18790  0.41850  1.0000
  O   O13       1.0  0.13490  0.66280  0.52800  1.0000
  O   O14       1.0  0.86510  0.33720  0.47200  1.0000
  O   O15       1.0  0.27290  0.84520  0.71910  1.0000
  O   O16       1.0  0.72710  0.15480  0.28090  1.0000
  C   C1        1.0  0.68150  0.51730  0.80190  1.0000
  C   C2        1.0  0.31850  0.48270  0.19810  1.0000
  C   C3        1.0  0.58160  0.50600  0.90130  1.0000
  C   C4        1.0  0.41840  0.49400  0.09870  1.0000
  C   C5        1.0  0.69340  0.50250  0.02230  1.0000
  C   C6        1.0  0.30660  0.49750  0.97770  1.0000
  H   H1        1.0  0.82400  0.50350  0.03700  1.0000
  H   H2        1.0  0.17600  0.49650  0.96300  1.0000
  C   C7        1.0  0.38360  0.50260  0.87850  1.0000
  C   C8        1.0  0.61640  0.49740  0.12150  1.0000
  C   C9        1.0  0.25020  0.50170  0.74810  1.0000
  C   C10       1.0  0.74980  0.49830  0.25190  1.0000
  C   C11       1.0  0.64810  0.77500  0.54990  1.0000
  C   C12       1.0  0.35190  0.22500  0.45010  1.0000
  C   C13       1.0  0.56510  0.88890  0.52360  1.0000
  C   C14       1.0  0.43490  0.11110  0.47640  1.0000
  C   C15       1.0  0.66710  0.99150  0.47300  1.0000
  C   C16       1.0  0.33290  0.00850  0.52700  1.0000
  H   H3        1.0  0.77950  0.98540  0.45440  1.0000
  H   H4        1.0  0.22050  0.01460  0.54560  1.0000
  C   C17       1.0  0.39310  0.89590  0.55110  1.0000
  C   C18       1.0  0.60690  0.10410  0.44890  1.0000
  C   C19       1.0  0.26480  0.79490  0.60820  1.0000
  C   C20       1.0  0.73520  0.20510  0.39180  1.0000
