data_image0
_chemical_formula_structural       Gd2O16C6H2C10H2C4
_chemical_formula_sum              "Gd2 O16 C20 H4"
_cell_length_a       7.255
_cell_length_b       9.91
_cell_length_c       11.05
_cell_angle_alpha    102.585
_cell_angle_beta     105.721
_cell_angle_gamma    109.01

_space_group_name_H-M_alt    "P 1"
_space_group_IT_number       1

loop_
  _space_group_symop_operation_xyz
  'x, y, z'

loop_
  _atom_site_type_symbol
  _atom_site_label
  _atom_site_symmetry_multiplicity
  _atom_site_fract_x
  _atom_site_fract_y
  _atom_site_fract_z
  _atom_site_occupancy
  Gd  Gd1       1.0  0.81914  0.55062  0.58120  1.0000
  Gd  Gd2       1.0  0.18086  0.44938  0.41880  1.0000
  O   O1        1.0  0.68250  0.39850  0.72740  1.0000
  O   O2        1.0  0.31750  0.60150  0.27260  1.0000
  O   O3        1.0  0.76770  0.64530  0.78800  1.0000
  O   O4        1.0  0.23230  0.35470  0.21200  1.0000
  O   O5        1.0  0.09300  0.53550  0.74740  1.0000
  O   O6        1.0  0.90700  0.46450  0.25260  1.0000
  O   O7        1.0  0.29300  0.46320  0.64800  1.0000
  O   O8        1.0  0.70700  0.53680  0.35200  1.0000
  O   O9        1.0  0.52730  0.64560  0.54160  1.0000
  O   O10       1.0  0.47270  0.35440  0.45840  1.0000
  O   O11       1.0  0.84410  0.80770  0.58300  1.0000
  O   O12       1.0  0.15590  0.19230  0.41700  1.0000
  O   O13       1.0  0.13400  0.66210  0.53390  1.0000
  O   O14       1.0  0.86600  0.33790  0.46610  1.0000
  O   O15       1.0  0.28910  0.85100  0.72910  1.0000
  O   O16       1.0  0.71090  0.14900  0.27090  1.0000
  C   C1        1.0  0.68180  0.51860  0.79680  1.0000
  C   C2        1.0  0.31820  0.48140  0.20320  1.0000
  C   C3        1.0  0.58090  0.50710  0.89890  1.0000
  C   C4        1.0  0.41910  0.49290  0.10110  1.0000
  C   C5        1.0  0.69790  0.50320  0.02090  1.0000
  C   C6        1.0  0.30210  0.49680  0.97910  1.0000
  H   H1        1.0  0.83110  0.50500  0.03450  1.0000
  H   H2        1.0  0.16890  0.49500  0.96550  1.0000
  C   C7        1.0  0.38130  0.50340  0.87780  1.0000
  C   C8        1.0  0.61870  0.49660  0.12220  1.0000
  C   C9        1.0  0.24610  0.50260  0.74730  1.0000
  C   C10       1.0  0.75390  0.49740  0.25270  1.0000
  C   C11       1.0  0.65170  0.77370  0.55090  1.0000
  C   C12       1.0  0.34830  0.22630  0.44910  1.0000
  C   C13       1.0  0.56790  0.88870  0.52420  1.0000
  C   C14       1.0  0.43210  0.11130  0.47580  1.0000
  C   C15       1.0  0.67130  0.99150  0.47220  1.0000
  C   C16       1.0  0.32870  0.00850  0.52780  1.0000
  H   H3        1.0  0.78690  0.98540  0.45410  1.0000
  H   H4        1.0  0.21310  0.01460  0.54590  1.0000
  C   C17       1.0  0.39330  0.89630  0.55360  1.0000
  C   C18       1.0  0.60670  0.10370  0.44640  1.0000
  C   C19       1.0  0.26960  0.79630  0.61420  1.0000
  C   C20       1.0  0.73040  0.20370  0.38580  1.0000
