data_image0
_chemical_formula_structural       C4H4C4H4C4H4C4H4C4H4O40Cu8
_chemical_formula_sum              "C20 H20 O40 Cu8"
_cell_length_a       17.2235
_cell_length_b       7.3479
_cell_length_c       14.2226
_cell_angle_alpha    90
_cell_angle_beta     93.7
_cell_angle_gamma    90

_space_group_name_H-M_alt    "P 1"
_space_group_IT_number       1

loop_
  _space_group_symop_operation_xyz
  'x, y, z'

loop_
  _atom_site_type_symbol
  _atom_site_label
  _atom_site_symmetry_multiplicity
  _atom_site_fract_x
  _atom_site_fract_y
  _atom_site_fract_z
  _atom_site_occupancy
  C   C1        1.0  0.00728  0.72710  0.10450  1.0000
  C   C2        1.0  0.99272  0.22710  0.39550  1.0000
  C   C3        1.0  0.99272  0.27290  0.89550  1.0000
  C   C4        1.0  0.00728  0.77290  0.60450  1.0000
  H   H1        1.0  0.01010  0.62510  0.14330  1.0000
  H   H2        1.0  0.98990  0.12510  0.35670  1.0000
  H   H3        1.0  0.98990  0.37490  0.85670  1.0000
  H   H4        1.0  0.01010  0.87490  0.64330  1.0000
  C   C5        1.0  0.94920  0.80540  0.86508  1.0000
  C   C6        1.0  0.05080  0.30540  0.63492  1.0000
  C   C7        1.0  0.05080  0.19460  0.13492  1.0000
  C   C8        1.0  0.94920  0.69460  0.36508  1.0000
  H   H5        1.0  0.92950  0.73320  0.81540  1.0000
  H   H6        1.0  0.07050  0.23320  0.68460  1.0000
  H   H7        1.0  0.07050  0.26680  0.18460  1.0000
  H   H8        1.0  0.92950  0.76680  0.31540  1.0000
  C   C9        1.0  0.74852  0.05330  0.03178  1.0000
  C   C10       1.0  0.25148  0.55330  0.46822  1.0000
  C   C11       1.0  0.25148  0.94670  0.96822  1.0000
  C   C12       1.0  0.74852  0.44670  0.53178  1.0000
  H   H9        1.0  0.74230  0.96950  0.98290  1.0000
  H   H10       1.0  0.25770  0.46950  0.51710  1.0000
  H   H11       1.0  0.25770  0.03050  0.01710  1.0000
  H   H12       1.0  0.74230  0.53050  0.48290  1.0000
  C   C13       1.0  0.48870  0.86310  0.15918  1.0000
  C   C14       1.0  0.51130  0.36310  0.34082  1.0000
  C   C15       1.0  0.51130  0.13690  0.84082  1.0000
  C   C16       1.0  0.48870  0.63690  0.65918  1.0000
  H   H13       1.0  0.48420  0.81030  0.21800  1.0000
  H   H14       1.0  0.51580  0.31030  0.28200  1.0000
  H   H15       1.0  0.51580  0.18970  0.78200  1.0000
  H   H16       1.0  0.48420  0.68970  0.71800  1.0000
  C   C17       1.0  0.54443  0.69900  0.94114  1.0000
  C   C18       1.0  0.45557  0.19900  0.55886  1.0000
  C   C19       1.0  0.45557  0.30100  0.05886  1.0000
  C   C20       1.0  0.54443  0.80100  0.44114  1.0000
  H   H17       1.0  0.56260  0.58790  0.92010  1.0000
  H   H18       1.0  0.43740  0.08790  0.57990  1.0000
  H   H19       1.0  0.43740  0.41210  0.07990  1.0000
  H   H20       1.0  0.56260  0.91210  0.42010  1.0000
  O   O1        1.0  0.94554  0.81470  0.10383  1.0000
  O   O2        1.0  0.05446  0.31470  0.39617  1.0000
  O   O3        1.0  0.05446  0.18530  0.89617  1.0000
  O   O4        1.0  0.94554  0.68530  0.60383  1.0000
  O   O5        1.0  0.06535  0.75780  0.06043  1.0000
  O   O6        1.0  0.93465  0.25780  0.43957  1.0000
  O   O7        1.0  0.93465  0.24220  0.93957  1.0000
  O   O8        1.0  0.06535  0.74220  0.56043  1.0000
  O   O9        1.0  0.02095  0.81970  0.87359  1.0000
  O   O10       1.0  0.97905  0.31970  0.62641  1.0000
  O   O11       1.0  0.97905  0.18030  0.12641  1.0000
  O   O12       1.0  0.02095  0.68030  0.37359  1.0000
  O   O13       1.0  0.90012  0.87530  0.91458  1.0000
  O   O14       1.0  0.09988  0.37530  0.58542  1.0000
  O   O15       1.0  0.09988  0.12470  0.08542  1.0000
  O   O16       1.0  0.90012  0.62470  0.41458  1.0000
  O   O17       1.0  0.81469  0.08960  0.06243  1.0000
  O   O18       1.0  0.18531  0.58960  0.43757  1.0000
  O   O19       1.0  0.18531  0.91040  0.93757  1.0000
  O   O20       1.0  0.81469  0.41040  0.56243  1.0000
  O   O21       1.0  0.68921  0.12190  0.06219  1.0000
  O   O22       1.0  0.31079  0.62190  0.43781  1.0000
  O   O23       1.0  0.31079  0.87810  0.93781  1.0000
  O   O24       1.0  0.68921  0.37810  0.56219  1.0000
  O   O25       1.0  0.55165  0.93640  0.14635  1.0000
  O   O26       1.0  0.44835  0.43640  0.35365  1.0000
  O   O27       1.0  0.44835  0.06360  0.85365  1.0000
  O   O28       1.0  0.55165  0.56360  0.64635  1.0000
  O   O29       1.0  0.43041  0.85130  0.10292  1.0000
  O   O30       1.0  0.56959  0.35130  0.39708  1.0000
  O   O31       1.0  0.56959  0.14870  0.89708  1.0000
  O   O32       1.0  0.43041  0.64870  0.60292  1.0000
  O   O33       1.0  0.59448  0.80580  0.97580  1.0000
  O   O34       1.0  0.40552  0.30580  0.52420  1.0000
  O   O35       1.0  0.40552  0.19420  0.02420  1.0000
  O   O36       1.0  0.59448  0.69420  0.47580  1.0000
  O   O37       1.0  0.47342  0.72340  0.93143  1.0000
  O   O38       1.0  0.52658  0.22340  0.56857  1.0000
  O   O39       1.0  0.52658  0.27660  0.06857  1.0000
  O   O40       1.0  0.47342  0.77660  0.43143  1.0000
  Cu  Cu1       1.0  0.92794  0.03213  0.02449  1.0000
  Cu  Cu2       1.0  0.07206  0.53213  0.47551  1.0000
  Cu  Cu3       1.0  0.07206  0.96787  0.97551  1.0000
  Cu  Cu4       1.0  0.92794  0.46787  0.52449  1.0000
  Cu  Cu5       1.0  0.57269  0.04902  0.02513  1.0000
  Cu  Cu6       1.0  0.42731  0.54902  0.47487  1.0000
  Cu  Cu7       1.0  0.42731  0.95098  0.97487  1.0000
  Cu  Cu8       1.0  0.57269  0.45098  0.52513  1.0000
