data_image0
_chemical_formula_structural       C12H4C8H4C8H4C20H4C16H4C4H4C8H4C4H4C16H4C12H4C12H4C4H4C4Co12N4H8N4H8N4H8N4H8O68H8O4H8
_chemical_formula_sum              "C128 H96 Co12 N16 O72"
_cell_length_a       14.116
_cell_length_b       19.5199
_cell_length_c       17.3852
_cell_angle_alpha    90
_cell_angle_beta     93.588
_cell_angle_gamma    90

_space_group_name_H-M_alt    "P 1"
_space_group_IT_number       1

loop_
  _space_group_symop_operation_xyz
  'x, y, z'

loop_
  _atom_site_type_symbol
  _atom_site_label
  _atom_site_symmetry_multiplicity
  _atom_site_fract_x
  _atom_site_fract_y
  _atom_site_fract_z
  _atom_site_occupancy
  C   C1        1.0  0.59970  0.41500  0.25900  1.0000
  C   C2        1.0  0.90030  0.91500  0.24100  1.0000
  C   C3        1.0  0.40030  0.58500  0.74100  1.0000
  C   C4        1.0  0.09970  0.08500  0.75900  1.0000
  C   C5        1.0  0.58340  0.48710  0.28170  1.0000
  C   C6        1.0  0.91660  0.98710  0.21830  1.0000
  C   C7        1.0  0.41660  0.51290  0.71830  1.0000
  C   C8        1.0  0.08340  0.01290  0.78170  1.0000
  C   C9        1.0  0.49570  0.50610  0.30860  1.0000
  C   C10       1.0  0.00430  0.00610  0.19140  1.0000
  C   C11       1.0  0.50430  0.49390  0.69140  1.0000
  C   C12       1.0  0.99570  0.99390  0.80860  1.0000
  H   H1        1.0  0.44712  0.47267  0.31147  1.0000
  H   H2        1.0  0.05288  0.97267  0.18853  1.0000
  H   H3        1.0  0.55288  0.52733  0.68853  1.0000
  H   H4        1.0  0.94712  0.02733  0.81147  1.0000
  C   C13       1.0  0.47840  0.57300  0.33130  1.0000
  C   C14       1.0  0.02160  0.07300  0.16870  1.0000
  C   C15       1.0  0.52160  0.42700  0.66870  1.0000
  C   C16       1.0  0.97840  0.92700  0.83130  1.0000
  C   C17       1.0  0.55120  0.62110  0.32940  1.0000
  C   C18       1.0  0.94880  0.12110  0.17060  1.0000
  C   C19       1.0  0.44880  0.37890  0.67060  1.0000
  C   C20       1.0  0.05120  0.87890  0.82940  1.0000
  H   H5        1.0  0.54169  0.66636  0.34734  1.0000
  H   H6        1.0  0.95831  0.16636  0.15266  1.0000
  H   H7        1.0  0.45831  0.33364  0.65266  1.0000
  H   H8        1.0  0.04169  0.83364  0.84734  1.0000
  C   C21       1.0  0.63800  0.60290  0.30120  1.0000
  C   C22       1.0  0.86200  0.10290  0.19880  1.0000
  C   C23       1.0  0.36200  0.39710  0.69880  1.0000
  C   C24       1.0  0.13800  0.89710  0.80120  1.0000
  C   C25       1.0  0.65310  0.53640  0.27720  1.0000
  C   C26       1.0  0.84690  0.03640  0.22280  1.0000
  C   C27       1.0  0.34690  0.46360  0.72280  1.0000
  C   C28       1.0  0.15310  0.96360  0.77720  1.0000
  H   H9        1.0  0.71208  0.52446  0.25746  1.0000
  H   H10       1.0  0.78792  0.02446  0.24254  1.0000
  H   H11       1.0  0.28792  0.47554  0.74254  1.0000
  H   H12       1.0  0.21208  0.97554  0.75746  1.0000
  C   C29       1.0  0.71490  0.65590  0.29470  1.0000
  C   C30       1.0  0.78510  0.15590  0.20530  1.0000
  C   C31       1.0  0.28510  0.34410  0.70530  1.0000
  C   C32       1.0  0.21490  0.84410  0.79470  1.0000
  C   C33       1.0  0.33830  0.22280  0.86570  1.0000
  C   C34       1.0  0.16170  0.72280  0.63430  1.0000
  C   C35       1.0  0.66170  0.77720  0.13430  1.0000
  C   C36       1.0  0.83830  0.27720  0.36570  1.0000
  C   C37       1.0  0.43180  0.25120  0.89710  1.0000
  C   C38       1.0  0.06820  0.75120  0.60290  1.0000
  C   C39       1.0  0.56820  0.74880  0.10290  1.0000
  C   C40       1.0  0.93180  0.24880  0.39710  1.0000
  C   C41       1.0  0.91090  0.33710  0.10380  1.0000
  C   C42       1.0  0.58910  0.83710  0.39620  1.0000
  C   C43       1.0  0.08910  0.66290  0.89620  1.0000
  C   C44       1.0  0.41090  0.16290  0.60380  1.0000
  C   C45       1.0  0.00200  0.32440  0.13410  1.0000
  C   C46       1.0  0.49800  0.82440  0.36590  1.0000
  C   C47       1.0  0.99800  0.67560  0.86590  1.0000
  C   C48       1.0  0.50200  0.17560  0.63410  1.0000
  H   H13       1.0  0.01895  0.33526  0.18642  1.0000
  H   H14       1.0  0.48105  0.83526  0.31358  1.0000
  H   H15       1.0  0.98105  0.66474  0.81358  1.0000
  H   H16       1.0  0.51895  0.16474  0.68642  1.0000
  C   C49       1.0  0.06920  0.29590  0.08820  1.0000
  C   C50       1.0  0.43080  0.79590  0.41180  1.0000
  C   C51       1.0  0.93080  0.70410  0.91180  1.0000
  C   C52       1.0  0.56920  0.20410  0.58820  1.0000
  C   C53       1.0  0.57010  0.28720  0.08750  1.0000
  C   C54       1.0  0.92990  0.78720  0.41250  1.0000
  C   C55       1.0  0.42990  0.71280  0.91250  1.0000
  C   C56       1.0  0.07010  0.21280  0.58750  1.0000
  C   C57       1.0  0.54210  0.28410  0.00220  1.0000
  C   C58       1.0  0.95790  0.78410  0.49780  1.0000
  C   C59       1.0  0.45790  0.71590  0.99780  1.0000
  C   C60       1.0  0.04210  0.21590  0.50220  1.0000
  C   C61       1.0  0.45440  0.25760  0.97600  1.0000
  C   C62       1.0  0.04560  0.75760  0.52400  1.0000
  C   C63       1.0  0.54560  0.74240  0.02400  1.0000
  C   C64       1.0  0.95440  0.24240  0.47600  1.0000
  H   H17       1.0  0.40996  0.24395  0.01190  1.0000
  H   H18       1.0  0.09004  0.74395  0.48810  1.0000
  H   H19       1.0  0.59004  0.75605  0.98810  1.0000
  H   H20       1.0  0.90996  0.25605  0.51190  1.0000
  C   C65       1.0  0.60510  0.30750  0.94990  1.0000
  C   C66       1.0  0.89490  0.80750  0.55010  1.0000
  C   C67       1.0  0.39490  0.69250  0.05010  1.0000
  C   C68       1.0  0.10510  0.19250  0.44990  1.0000
  H   H21       1.0  0.66459  0.32598  0.96817  1.0000
  H   H22       1.0  0.83541  0.82598  0.53183  1.0000
  H   H23       1.0  0.33541  0.67402  0.03183  1.0000
  H   H24       1.0  0.16459  0.17402  0.46817  1.0000
  C   C69       1.0  0.58180  0.30410  0.87060  1.0000
  C   C70       1.0  0.91820  0.80410  0.62940  1.0000
  C   C71       1.0  0.41820  0.69590  0.12940  1.0000
  C   C72       1.0  0.08180  0.19590  0.37060  1.0000
  C   C73       1.0  0.49670  0.27330  0.84480  1.0000
  C   C74       1.0  0.00330  0.77330  0.65520  1.0000
  C   C75       1.0  0.50330  0.72670  0.15520  1.0000
  C   C76       1.0  0.99670  0.22670  0.34480  1.0000
  H   H25       1.0  0.48255  0.26728  0.79113  1.0000
  H   H26       1.0  0.01745  0.76728  0.70887  1.0000
  H   H27       1.0  0.51745  0.73272  0.20887  1.0000
  H   H28       1.0  0.98255  0.23272  0.29113  1.0000
  C   C77       1.0  0.88420  0.31630  0.02880  1.0000
  C   C78       1.0  0.61580  0.81630  0.47120  1.0000
  C   C79       1.0  0.11580  0.68370  0.97120  1.0000
  C   C80       1.0  0.38420  0.18370  0.52880  1.0000
  H   H29       1.0  0.82067  0.32284  0.00886  1.0000
  H   H30       1.0  0.67933  0.82284  0.49114  1.0000
  H   H31       1.0  0.17933  0.67716  0.99114  1.0000
  H   H32       1.0  0.32067  0.17716  0.50886  1.0000
  C   C81       1.0  0.16640  0.28050  0.12360  1.0000
  C   C82       1.0  0.33360  0.78050  0.37640  1.0000
  C   C83       1.0  0.83360  0.71950  0.87640  1.0000
  C   C84       1.0  0.66640  0.21950  0.62360  1.0000
  C   C85       1.0  0.28910  0.88980  0.20150  1.0000
  C   C86       1.0  0.21090  0.38980  0.29850  1.0000
  C   C87       1.0  0.71090  0.11020  0.79850  1.0000
  C   C88       1.0  0.78910  0.61020  0.70150  1.0000
  C   C89       1.0  0.36680  0.94270  0.19890  1.0000
  C   C90       1.0  0.13320  0.44270  0.30110  1.0000
  C   C91       1.0  0.63320  0.05730  0.80110  1.0000
  C   C92       1.0  0.86680  0.55730  0.69890  1.0000
  C   C93       1.0  0.45890  0.92230  0.18370  1.0000
  C   C94       1.0  0.04110  0.42230  0.31630  1.0000
  C   C95       1.0  0.54110  0.07770  0.81630  1.0000
  C   C96       1.0  0.95890  0.57770  0.68370  1.0000
  H   H33       1.0  0.47154  0.87571  0.17213  1.0000
  H   H34       1.0  0.02846  0.37571  0.32787  1.0000
  H   H35       1.0  0.52846  0.12429  0.82787  1.0000
  H   H36       1.0  0.97154  0.62429  0.67213  1.0000
  C   C97       1.0  0.91980  0.26150  0.90380  1.0000
  C   C98       1.0  0.58020  0.76150  0.59620  1.0000
  C   C99       1.0  0.08020  0.73850  0.09620  1.0000
  C   C100      1.0  0.41980  0.23850  0.40380  1.0000
  C   C101      1.0  0.94980  0.28630  0.98330  1.0000
  C   C102      1.0  0.55020  0.78630  0.51670  1.0000
  C   C103      1.0  0.05020  0.71370  0.01670  1.0000
  C   C104      1.0  0.44980  0.21370  0.48330  1.0000
  C   C105      1.0  0.04400  0.27640  0.01260  1.0000
  C   C106      1.0  0.45600  0.77640  0.48740  1.0000
  C   C107      1.0  0.95600  0.72360  0.98740  1.0000
  C   C108      1.0  0.54400  0.22360  0.51260  1.0000
  H   H37       1.0  0.08970  0.25675  0.98132  1.0000
  H   H38       1.0  0.41030  0.75675  0.51868  1.0000
  H   H39       1.0  0.91030  0.74325  0.01868  1.0000
  H   H40       1.0  0.58970  0.24325  0.48132  1.0000
  C   C109      1.0  0.40160  0.13230  0.23400  1.0000
  C   C110      1.0  0.09840  0.63230  0.26600  1.0000
  C   C111      1.0  0.59840  0.86770  0.76600  1.0000
  C   C112      1.0  0.90160  0.36770  0.73400  1.0000
  C   C113      1.0  0.42100  0.05860  0.21630  1.0000
  C   C114      1.0  0.07900  0.55860  0.28370  1.0000
  C   C115      1.0  0.57900  0.94140  0.78370  1.0000
  C   C116      1.0  0.92100  0.44140  0.71630  1.0000
  C   C117      1.0  0.34830  0.01130  0.21460  1.0000
  C   C118      1.0  0.15170  0.51130  0.28540  1.0000
  C   C119      1.0  0.65170  0.98870  0.78540  1.0000
  C   C120      1.0  0.84830  0.48870  0.71460  1.0000
  H   H41       1.0  0.28569  0.02539  0.22419  1.0000
  H   H42       1.0  0.21431  0.52539  0.27581  1.0000
  H   H43       1.0  0.71431  0.97461  0.77581  1.0000
  H   H44       1.0  0.78569  0.47461  0.72419  1.0000
  C   C121      1.0  0.51270  0.03900  0.20240  1.0000
  C   C122      1.0  0.98730  0.53900  0.29760  1.0000
  C   C123      1.0  0.48730  0.96100  0.79760  1.0000
  C   C124      1.0  0.01270  0.46100  0.70240  1.0000
  H   H45       1.0  0.56225  0.07196  0.20425  1.0000
  H   H46       1.0  0.93775  0.57196  0.29575  1.0000
  H   H47       1.0  0.43775  0.92804  0.79575  1.0000
  H   H48       1.0  0.06225  0.42804  0.70425  1.0000
  C   C125      1.0  0.53220  0.97050  0.18560  1.0000
  C   C126      1.0  0.96780  0.47050  0.31440  1.0000
  C   C127      1.0  0.46780  0.02950  0.81440  1.0000
  C   C128      1.0  0.03220  0.52950  0.68560  1.0000
  Co  Co1       1.0  0.25866  0.23946  0.27844  1.0000
  Co  Co2       1.0  0.24134  0.73946  0.22156  1.0000
  Co  Co3       1.0  0.74134  0.76054  0.72156  1.0000
  Co  Co4       1.0  0.75866  0.26054  0.77844  1.0000
  Co  Co5       1.0  0.49905  0.27294  0.24978  1.0000
  Co  Co6       1.0  0.00095  0.77294  0.25022  1.0000
  Co  Co7       1.0  0.50095  0.72706  0.75022  1.0000
  Co  Co8       1.0  0.99905  0.22706  0.74978  1.0000
  Co  Co9       1.0  0.73646  0.30585  0.20742  1.0000
  Co  Co10      1.0  0.76354  0.80585  0.29258  1.0000
  Co  Co11      1.0  0.26354  0.69415  0.79258  1.0000
  Co  Co12      1.0  0.23646  0.19415  0.70742  1.0000
  N   N1        1.0  0.39110  0.59040  0.35940  1.0000
  N   N2        1.0  0.10890  0.09040  0.14060  1.0000
  N   N3        1.0  0.60890  0.40960  0.64060  1.0000
  N   N4        1.0  0.89110  0.90960  0.85940  1.0000
  H   H49       1.0  0.39125  0.63471  0.37148  1.0000
  H   H50       1.0  0.10875  0.13471  0.12852  1.0000
  H   H51       1.0  0.60875  0.36529  0.62852  1.0000
  H   H52       1.0  0.89125  0.86529  0.87148  1.0000
  H   H53       1.0  0.34525  0.58213  0.32316  1.0000
  H   H54       1.0  0.15475  0.08213  0.17684  1.0000
  H   H55       1.0  0.65475  0.41787  0.67684  1.0000
  H   H56       1.0  0.84525  0.91787  0.82316  1.0000
  N   N5        1.0  0.84080  0.36770  0.14950  1.0000
  N   N6        1.0  0.65920  0.86770  0.35050  1.0000
  N   N7        1.0  0.15920  0.63230  0.85050  1.0000
  N   N8        1.0  0.34080  0.13230  0.64950  1.0000
  H   H57       1.0  0.80739  0.39785  0.11846  1.0000
  H   H58       1.0  0.69261  0.89785  0.38154  1.0000
  H   H59       1.0  0.19261  0.60215  0.88154  1.0000
  H   H60       1.0  0.30739  0.10215  0.61846  1.0000
  H   H61       1.0  0.87279  0.39298  0.18669  1.0000
  H   H62       1.0  0.62721  0.89298  0.31331  1.0000
  H   H63       1.0  0.12721  0.60702  0.81331  1.0000
  H   H64       1.0  0.37279  0.10702  0.68669  1.0000
  N   N9        1.0  0.64780  0.32870  0.81840  1.0000
  N   N10       1.0  0.85220  0.82870  0.68160  1.0000
  N   N11       1.0  0.35220  0.67130  0.18160  1.0000
  N   N12       1.0  0.14780  0.17130  0.31840  1.0000
  H   H65       1.0  0.67752  0.36564  0.84090  1.0000
  H   H66       1.0  0.82248  0.86564  0.65910  1.0000
  H   H67       1.0  0.32248  0.63436  0.15910  1.0000
  H   H68       1.0  0.17752  0.13436  0.34090  1.0000
  H   H69       1.0  0.61366  0.34433  0.77585  1.0000
  H   H70       1.0  0.88634  0.84433  0.72415  1.0000
  H   H71       1.0  0.38634  0.65567  0.22415  1.0000
  H   H72       1.0  0.11366  0.15567  0.27585  1.0000
  N   N13       1.0  0.62330  0.94990  0.16770  1.0000
  N   N14       1.0  0.87670  0.44990  0.33230  1.0000
  N   N15       1.0  0.37670  0.05010  0.83230  1.0000
  N   N16       1.0  0.12330  0.55010  0.66770  1.0000
  H   H73       1.0  0.66204  0.98591  0.17118  1.0000
  H   H74       1.0  0.83796  0.48591  0.32882  1.0000
  H   H75       1.0  0.33796  0.01409  0.82882  1.0000
  H   H76       1.0  0.16204  0.51409  0.67118  1.0000
  H   H77       1.0  0.64420  0.91784  0.20090  1.0000
  H   H78       1.0  0.85580  0.41784  0.29910  1.0000
  H   H79       1.0  0.35580  0.08216  0.79910  1.0000
  H   H80       1.0  0.14420  0.58216  0.70090  1.0000
  O   O1        1.0  0.53050  0.37520  0.25740  1.0000
  O   O2        1.0  0.96950  0.87520  0.24260  1.0000
  O   O3        1.0  0.46950  0.62480  0.74260  1.0000
  O   O4        1.0  0.03050  0.12480  0.75740  1.0000
  O   O5        1.0  0.68230  0.39890  0.24160  1.0000
  O   O6        1.0  0.81770  0.89890  0.25840  1.0000
  O   O7        1.0  0.31770  0.60110  0.75840  1.0000
  O   O8        1.0  0.18230  0.10110  0.74160  1.0000
  O   O9        1.0  0.70420  0.71350  0.32550  1.0000
  O   O10       1.0  0.79580  0.21350  0.17450  1.0000
  O   O11       1.0  0.29580  0.28650  0.67450  1.0000
  O   O12       1.0  0.20420  0.78650  0.82550  1.0000
  O   O13       1.0  0.78560  0.63910  0.25740  1.0000
  O   O14       1.0  0.71440  0.13910  0.24260  1.0000
  O   O15       1.0  0.21440  0.36090  0.74260  1.0000
  O   O16       1.0  0.28560  0.86090  0.75740  1.0000
  O   O17       1.0  0.33850  0.19620  0.79950  1.0000
  O   O18       1.0  0.16150  0.69620  0.70050  1.0000
  O   O19       1.0  0.66150  0.80380  0.20050  1.0000
  O   O20       1.0  0.83850  0.30380  0.29950  1.0000
  O   O21       1.0  0.26740  0.22700  0.90500  1.0000
  O   O22       1.0  0.23260  0.72700  0.59500  1.0000
  O   O23       1.0  0.73260  0.77300  0.09500  1.0000
  O   O24       1.0  0.76740  0.27300  0.40500  1.0000
  O   O25       1.0  0.51150  0.26440  0.13260  1.0000
  O   O26       1.0  0.98850  0.76440  0.36740  1.0000
  O   O27       1.0  0.48850  0.73560  0.86740  1.0000
  O   O28       1.0  0.01150  0.23560  0.63260  1.0000
  O   O29       1.0  0.65060  0.30950  0.10640  1.0000
  O   O30       1.0  0.84940  0.80950  0.39360  1.0000
  O   O31       1.0  0.34940  0.69050  0.89360  1.0000
  O   O32       1.0  0.15060  0.19050  0.60640  1.0000
  O   O33       1.0  0.23780  0.30610  0.09600  1.0000
  O   O34       1.0  0.26220  0.80610  0.40400  1.0000
  O   O35       1.0  0.76220  0.69390  0.90400  1.0000
  O   O36       1.0  0.73780  0.19390  0.59600  1.0000
  O   O37       1.0  0.16770  0.24140  0.18080  1.0000
  O   O38       1.0  0.33230  0.74140  0.31920  1.0000
  O   O39       1.0  0.83230  0.75860  0.81920  1.0000
  O   O40       1.0  0.66770  0.25860  0.68080  1.0000
  O   O41       1.0  0.30930  0.82920  0.18700  1.0000
  O   O42       1.0  0.19070  0.32920  0.31300  1.0000
  O   O43       1.0  0.69070  0.17080  0.81300  1.0000
  O   O44       1.0  0.80930  0.67080  0.68700  1.0000
  O   O45       1.0  0.20890  0.91120  0.21930  1.0000
  O   O46       1.0  0.29110  0.41120  0.28070  1.0000
  O   O47       1.0  0.79110  0.08880  0.78070  1.0000
  O   O48       1.0  0.70890  0.58880  0.71930  1.0000
  O   O49       1.0  0.83570  0.27400  0.88060  1.0000
  O   O50       1.0  0.66430  0.77400  0.61940  1.0000
  O   O51       1.0  0.16430  0.72600  0.11940  1.0000
  O   O52       1.0  0.33570  0.22600  0.38060  1.0000
  O   O53       1.0  0.97840  0.22670  0.86810  1.0000
  O   O54       1.0  0.52160  0.72670  0.63190  1.0000
  O   O55       1.0  0.02160  0.77330  0.13190  1.0000
  O   O56       1.0  0.47840  0.27330  0.36810  1.0000
  O   O57       1.0  0.31690  0.15060  0.23510  1.0000
  O   O58       1.0  0.18310  0.65060  0.26490  1.0000
  O   O59       1.0  0.68310  0.84940  0.76490  1.0000
  O   O60       1.0  0.81690  0.34940  0.73510  1.0000
  O   O61       1.0  0.47250  0.17030  0.25140  1.0000
  O   O62       1.0  0.02750  0.67030  0.24860  1.0000
  O   O63       1.0  0.52750  0.82970  0.74860  1.0000
  O   O64       1.0  0.97250  0.32970  0.75140  1.0000
  O   O65       1.0  0.64190  0.25080  0.27770  1.0000
  O   O66       1.0  0.85810  0.75080  0.22230  1.0000
  O   O67       1.0  0.35810  0.74920  0.72230  1.0000
  O   O68       1.0  0.14190  0.24920  0.77770  1.0000
  H   H81       1.0  0.67052  0.21621  0.26268  1.0000
  H   H82       1.0  0.82948  0.71621  0.23732  1.0000
  H   H83       1.0  0.32948  0.78379  0.73732  1.0000
  H   H84       1.0  0.17052  0.28379  0.76268  1.0000
  H   H85       1.0  0.66750  0.26315  0.32064  1.0000
  H   H86       1.0  0.83250  0.76315  0.17936  1.0000
  H   H87       1.0  0.33250  0.73685  0.67936  1.0000
  H   H88       1.0  0.16750  0.23685  0.82064  1.0000
  O   O69       1.0  0.35830  0.30280  0.22300  1.0000
  O   O70       1.0  0.14170  0.80280  0.27700  1.0000
  O   O71       1.0  0.64170  0.69720  0.77700  1.0000
  O   O72       1.0  0.85830  0.19720  0.72300  1.0000
  H   H89       1.0  0.33829  0.29879  0.17642  1.0000
  H   H90       1.0  0.16171  0.79879  0.32358  1.0000
  H   H91       1.0  0.66171  0.70121  0.82358  1.0000
  H   H92       1.0  0.83829  0.20121  0.67642  1.0000
  H   H93       1.0  0.34829  0.34058  0.24378  1.0000
  H   H94       1.0  0.15171  0.84058  0.25622  1.0000
  H   H95       1.0  0.65171  0.65942  0.75622  1.0000
  H   H96       1.0  0.84829  0.15942  0.74378  1.0000
