data_image0
_chemical_formula_structural       U4O32C4H2C4H2C2H2C2H2C2H4C4H4C6H2C4H2C2H2C2H2C2H4C4H4C6H2C4H2C2H2C2H2C2H4C4H4C2
_chemical_formula_sum              "U4 O32 C60 H48"
_cell_length_a       11.0491
_cell_length_b       11.4663
_cell_length_c       16.016
_cell_angle_alpha    98.882
_cell_angle_beta     106.2
_cell_angle_gamma    90.46

_space_group_name_H-M_alt    "P 1"
_space_group_IT_number       1

loop_
  _space_group_symop_operation_xyz
  'x, y, z'

loop_
  _atom_site_type_symbol
  _atom_site_label
  _atom_site_symmetry_multiplicity
  _atom_site_fract_x
  _atom_site_fract_y
  _atom_site_fract_z
  _atom_site_occupancy
  U   U1        1.0  0.32178  0.24488  0.44277  1.0000
  U   U2        1.0  0.67822  0.75512  0.55723  1.0000
  U   U3        1.0  0.19990  0.76277  0.06250  1.0000
  U   U4        1.0  0.80010  0.23723  0.93750  1.0000
  O   O1        1.0  0.30060  0.10580  0.37430  1.0000
  O   O2        1.0  0.69940  0.89420  0.62570  1.0000
  O   O3        1.0  0.34750  0.38610  0.51070  1.0000
  O   O4        1.0  0.65250  0.61390  0.48930  1.0000
  O   O5        1.0  0.20340  0.62470  0.99700  1.0000
  O   O6        1.0  0.79660  0.37530  0.00300  1.0000
  O   O7        1.0  0.19590  0.89830  0.12990  1.0000
  O   O8        1.0  0.80410  0.10170  0.87010  1.0000
  O   O9        1.0  0.55010  0.25250  0.45500  1.0000
  O   O10       1.0  0.44990  0.74750  0.54500  1.0000
  O   O11       1.0  0.42510  0.32560  0.34480  1.0000
  O   O12       1.0  0.57490  0.67440  0.65520  1.0000
  O   O13       1.0  0.43440  0.77320  0.10150  1.0000
  O   O14       1.0  0.56560  0.22680  0.89850  1.0000
  O   O15       1.0  0.34920  0.69440  0.18960  1.0000
  O   O16       1.0  0.65080  0.30560  0.81040  1.0000
  O   O17       1.0  0.16680  0.31200  0.31610  1.0000
  O   O18       1.0  0.83320  0.68800  0.68390  1.0000
  O   O19       1.0  0.09780  0.27020  0.42360  1.0000
  O   O20       1.0  0.90220  0.72980  0.57640  1.0000
  O   O21       1.0  0.09050  0.66970  0.15180  1.0000
  O   O22       1.0  0.90950  0.33030  0.84820  1.0000
  O   O23       1.0  0.97160  0.72930  0.03410  1.0000
  O   O24       1.0  0.02840  0.27070  0.96590  1.0000
  O   O25       1.0  0.24200  0.14540  0.54250  1.0000
  O   O26       1.0  0.75800  0.85460  0.45750  1.0000
  O   O27       1.0  0.44690  0.15300  0.56950  1.0000
  O   O28       1.0  0.55310  0.84700  0.43050  1.0000
  O   O29       1.0  0.07720  0.85010  0.93210  1.0000
  O   O30       1.0  0.92280  0.14990  0.06790  1.0000
  O   O31       1.0  0.28260  0.87670  0.97120  1.0000
  O   O32       1.0  0.71740  0.12330  0.02880  1.0000
  C   C1        1.0  0.61750  0.37630  0.27180  1.0000
  C   C2        1.0  0.38250  0.62370  0.72820  1.0000
  C   C3        1.0  0.60590  0.49780  0.27880  1.0000
  C   C4        1.0  0.39410  0.50220  0.72120  1.0000
  H   H1        1.0  0.61462  0.54370  0.33510  1.0000
  H   H2        1.0  0.38538  0.45630  0.66490  1.0000
  C   C5        1.0  0.58190  0.55320  0.20520  1.0000
  C   C6        1.0  0.41810  0.44680  0.79480  1.0000
  C   C7        1.0  0.56830  0.48510  0.12240  1.0000
  C   C8        1.0  0.43170  0.51490  0.87760  1.0000
  H   H3        1.0  0.55290  0.52249  0.07168  1.0000
  H   H4        1.0  0.44710  0.47751  0.92832  1.0000
  C   C9        1.0  0.57700  0.36380  0.11370  1.0000
  C   C10       1.0  0.42300  0.63620  0.88630  1.0000
  H   H5        1.0  0.56660  0.31749  0.05741  1.0000
  H   H6        1.0  0.43340  0.68251  0.94259  1.0000
  C   C11       1.0  0.60150  0.31050  0.18900  1.0000
  C   C12       1.0  0.39850  0.68950  0.81100  1.0000
  H   H7        1.0  0.60717  0.22722  0.18330  1.0000
  H   H8        1.0  0.39283  0.77278  0.81670  1.0000
  C   C13       1.0  0.64650  0.31970  0.35290  1.0000
  C   C14       1.0  0.35350  0.68030  0.64710  1.0000
  H   H9        1.0  0.71152  0.37023  0.40030  1.0000
  H   H10       1.0  0.28848  0.62977  0.59970  1.0000
  H   H11       1.0  0.68289  0.24260  0.34035  1.0000
  H   H12       1.0  0.31711  0.75740  0.65965  1.0000
  C   C15       1.0  0.53330  0.29990  0.38620  1.0000
  C   C16       1.0  0.46670  0.70010  0.61380  1.0000
  C   C17       1.0  0.57480  0.68620  0.21580  1.0000
  C   C18       1.0  0.42520  0.31380  0.78420  1.0000
  H   H13       1.0  0.59238  0.71931  0.27908  1.0000
  H   H14       1.0  0.40762  0.28069  0.72092  1.0000
  H   H15       1.0  0.63997  0.71999  0.19337  1.0000
  H   H16       1.0  0.36003  0.28001  0.80663  1.0000
  C   C19       1.0  0.44620  0.72040  0.16620  1.0000
  C   C20       1.0  0.55380  0.27960  0.83380  1.0000
  C   C21       1.0  0.92450  0.44790  0.29540  1.0000
  C   C22       1.0  0.07550  0.55210  0.70460  1.0000
  C   C23       1.0  0.90400  0.49240  0.21730  1.0000
  C   C24       1.0  0.09600  0.50760  0.78270  1.0000
  H   H17       1.0  0.89978  0.44036  0.16421  1.0000
  H   H18       1.0  0.10022  0.55964  0.83579  1.0000
  C   C25       1.0  0.88960  0.61260  0.21570  1.0000
  C   C26       1.0  0.11040  0.38740  0.78430  1.0000
  C   C27       1.0  0.89720  0.68720  0.29290  1.0000
  C   C28       1.0  0.10280  0.31280  0.70710  1.0000
  H   H19       1.0  0.88748  0.76931  0.29225  1.0000
  H   H20       1.0  0.11252  0.23069  0.70775  1.0000
  C   C29       1.0  0.91890  0.64420  0.37220  1.0000
  C   C30       1.0  0.08110  0.35580  0.62780  1.0000
  H   H21       1.0  0.92474  0.69674  0.42534  1.0000
  H   H22       1.0  0.07526  0.30326  0.57466  1.0000
  C   C31       1.0  0.93180  0.52480  0.37300  1.0000
  C   C32       1.0  0.06820  0.47520  0.62700  1.0000
  H   H23       1.0  0.94580  0.49497  0.42689  1.0000
  H   H24       1.0  0.05420  0.50503  0.57311  1.0000
  C   C33       1.0  0.94210  0.31670  0.29580  1.0000
  C   C34       1.0  0.05790  0.68330  0.70420  1.0000
  H   H25       1.0  0.88133  0.28400  0.32249  1.0000
  H   H26       1.0  0.11867  0.71600  0.67751  1.0000
  H   H27       1.0  0.92538  0.27474  0.23451  1.0000
  H   H28       1.0  0.07462  0.72526  0.76549  1.0000
  C   C35       1.0  0.07490  0.29730  0.34760  1.0000
  C   C36       1.0  0.92510  0.70270  0.65240  1.0000
  C   C37       1.0  0.86490  0.65740  0.12880  1.0000
  C   C38       1.0  0.13510  0.34260  0.87120  1.0000
  H   H29       1.0  0.81671  0.72958  0.13179  1.0000
  H   H30       1.0  0.18329  0.27042  0.86821  1.0000
  H   H31       1.0  0.81153  0.59700  0.08177  1.0000
  H   H32       1.0  0.18847  0.40300  0.91823  1.0000
  C   C39       1.0  0.98300  0.68580  0.10380  1.0000
  C   C40       1.0  0.01700  0.31420  0.89620  1.0000
  C   C41       1.0  0.24630  0.00660  0.67720  1.0000
  C   C42       1.0  0.75370  0.99340  0.32280  1.0000
  C   C43       1.0  0.25750  0.01520  0.76420  1.0000
  C   C44       1.0  0.74250  0.98480  0.23580  1.0000
  H   H33       1.0  0.33964  0.02671  0.80447  1.0000
  H   H34       1.0  0.66036  0.97329  0.19553  1.0000
  C   C45       1.0  0.15430  0.00810  0.79810  1.0000
  C   C46       1.0  0.84570  0.99190  0.20190  1.0000
  C   C47       1.0  0.03200  0.98830  0.73830  1.0000
  C   C48       1.0  0.96800  0.01170  0.26170  1.0000
  H   H35       1.0  0.95979  0.98397  0.75910  1.0000
  H   H36       1.0  0.04021  0.01603  0.24090  1.0000
  C   C49       1.0  0.01940  0.97510  0.64820  1.0000
  C   C50       1.0  0.98060  0.02490  0.35180  1.0000
  H   H37       1.0  0.93785  0.96153  0.60729  1.0000
  H   H38       1.0  0.06215  0.03847  0.39271  1.0000
  C   C51       1.0  0.12560  0.98160  0.61700  1.0000
  C   C52       1.0  0.87440  0.01840  0.38300  1.0000
  H   H39       1.0  0.11612  0.96915  0.55546  1.0000
  H   H40       1.0  0.88388  0.03085  0.44454  1.0000
  C   C53       1.0  0.35800  0.01850  0.64120  1.0000
  C   C54       1.0  0.64200  0.98150  0.35880  1.0000
  H   H41       1.0  0.36848  0.94107  0.60765  1.0000
  H   H42       1.0  0.63152  0.05893  0.39235  1.0000
  H   H43       1.0  0.43501  0.03786  0.69146  1.0000
  H   H44       1.0  0.56499  0.96214  0.30854  1.0000
  C   C55       1.0  0.34820  0.11150  0.58190  1.0000
  C   C56       1.0  0.65180  0.88850  0.41810  1.0000
  C   C57       1.0  0.16620  0.02190  0.89250  1.0000
  C   C58       1.0  0.83380  0.97810  0.10750  1.0000
  H   H45       1.0  0.09271  0.06386  0.90340  1.0000
  H   H46       1.0  0.90729  0.93614  0.09660  1.0000
  H   H47       1.0  0.24270  0.07319  0.92456  1.0000
  H   H48       1.0  0.75730  0.92681  0.07544  1.0000
  C   C59       1.0  0.17440  0.90810  0.93190  1.0000
  C   C60       1.0  0.82560  0.09190  0.06810  1.0000
