data_image0
_chemical_formula_structural       U8O64C12H4C4H4C4H4C4H4C4H8C8H8C12H4C4H4C8H4C4H4C4H8C8H8C12H4C4H4C8H4C4H4C4H8C8H8C4
_chemical_formula_sum              "U8 O64 C120 H96"
_cell_length_a       11.758
_cell_length_b       12.2222
_cell_length_c       27.2916
_cell_angle_alpha    90
_cell_angle_beta     90
_cell_angle_gamma    90

_space_group_name_H-M_alt    "P 1"
_space_group_IT_number       1

loop_
  _space_group_symop_operation_xyz
  'x, y, z'

loop_
  _atom_site_type_symbol
  _atom_site_label
  _atom_site_symmetry_multiplicity
  _atom_site_fract_x
  _atom_site_fract_y
  _atom_site_fract_z
  _atom_site_occupancy
  U   U1        1.0  0.90541  0.35094  0.63467  1.0000
  U   U2        1.0  0.09459  0.64906  0.13467  1.0000
  U   U3        1.0  0.40541  0.14906  0.63467  1.0000
  U   U4        1.0  0.59459  0.85094  0.13467  1.0000
  U   U5        1.0  0.91728  0.26333  0.34920  1.0000
  U   U6        1.0  0.08272  0.73667  0.84920  1.0000
  U   U7        1.0  0.41728  0.23667  0.34920  1.0000
  U   U8        1.0  0.58272  0.76333  0.84920  1.0000
  O   O1        1.0  0.77670  0.37140  0.66640  1.0000
  O   O2        1.0  0.22330  0.62860  0.16640  1.0000
  O   O3        1.0  0.27670  0.12860  0.66640  1.0000
  O   O4        1.0  0.72330  0.87140  0.16640  1.0000
  O   O5        1.0  0.03440  0.33170  0.60210  1.0000
  O   O6        1.0  0.96560  0.66830  0.10210  1.0000
  O   O7        1.0  0.53440  0.16830  0.60210  1.0000
  O   O8        1.0  0.46560  0.83170  0.10210  1.0000
  O   O9        1.0  0.80650  0.32290  0.31500  1.0000
  O   O10       1.0  0.19350  0.67710  0.81500  1.0000
  O   O11       1.0  0.30650  0.17710  0.31500  1.0000
  O   O12       1.0  0.69350  0.82290  0.81500  1.0000
  O   O13       1.0  0.02840  0.20470  0.38370  1.0000
  O   O14       1.0  0.97160  0.79530  0.88370  1.0000
  O   O15       1.0  0.52840  0.29530  0.38370  1.0000
  O   O16       1.0  0.47160  0.70470  0.88370  1.0000
  O   O17       1.0  0.80980  0.44310  0.56380  1.0000
  O   O18       1.0  0.19020  0.55690  0.06380  1.0000
  O   O19       1.0  0.30980  0.05690  0.56380  1.0000
  O   O20       1.0  0.69020  0.94310  0.06380  1.0000
  O   O21       1.0  0.91480  0.54400  0.61150  1.0000
  O   O22       1.0  0.08520  0.45600  0.11150  1.0000
  O   O23       1.0  0.41480  0.95600  0.61150  1.0000
  O   O24       1.0  0.58520  0.04400  0.11150  1.0000
  O   O25       1.0  0.96050  0.44510  0.38410  1.0000
  O   O26       1.0  0.03950  0.55490  0.88410  1.0000
  O   O27       1.0  0.46050  0.05490  0.38410  1.0000
  O   O28       1.0  0.53950  0.94510  0.88410  1.0000
  O   O29       1.0  0.84020  0.34750  0.42710  1.0000
  O   O30       1.0  0.15980  0.65250  0.92710  1.0000
  O   O31       1.0  0.34020  0.15250  0.42710  1.0000
  O   O32       1.0  0.65980  0.84750  0.92710  1.0000
  O   O33       1.0  0.99830  0.46370  0.69530  1.0000
  O   O34       1.0  0.00170  0.53630  0.19530  1.0000
  O   O35       1.0  0.49830  0.03630  0.69530  1.0000
  O   O36       1.0  0.50170  0.96370  0.19530  1.0000
  O   O37       1.0  0.99620  0.28900  0.71120  1.0000
  O   O38       1.0  0.00380  0.71100  0.21120  1.0000
  O   O39       1.0  0.49620  0.21100  0.71120  1.0000
  O   O40       1.0  0.50380  0.78900  0.21120  1.0000
  O   O41       1.0  0.21460  0.85440  0.89310  1.0000
  O   O42       1.0  0.78540  0.14560  0.39310  1.0000
  O   O43       1.0  0.71460  0.64560  0.89310  1.0000
  O   O44       1.0  0.28540  0.35440  0.39310  1.0000
  O   O45       1.0  0.14890  0.92050  0.82390  1.0000
  O   O46       1.0  0.85110  0.07950  0.32390  1.0000
  O   O47       1.0  0.64890  0.57950  0.82390  1.0000
  O   O48       1.0  0.35110  0.42050  0.32390  1.0000
  O   O49       1.0  0.87420  0.14610  0.64630  1.0000
  O   O50       1.0  0.12580  0.85390  0.14630  1.0000
  O   O51       1.0  0.37420  0.35390  0.64630  1.0000
  O   O52       1.0  0.62580  0.64610  0.14630  1.0000
  O   O53       1.0  0.82010  0.22000  0.57690  1.0000
  O   O54       1.0  0.17990  0.78000  0.07690  1.0000
  O   O55       1.0  0.32010  0.28000  0.57690  1.0000
  O   O56       1.0  0.67990  0.72000  0.07690  1.0000
  O   O57       1.0  0.98460  0.79060  0.77050  1.0000
  O   O58       1.0  0.01540  0.20940  0.27050  1.0000
  O   O59       1.0  0.48460  0.70940  0.77050  1.0000
  O   O60       1.0  0.51540  0.29060  0.27050  1.0000
  O   O61       1.0  0.94180  0.63140  0.80260  1.0000
  O   O62       1.0  0.05820  0.36860  0.30260  1.0000
  O   O63       1.0  0.44180  0.86860  0.80260  1.0000
  O   O64       1.0  0.55820  0.13140  0.30260  1.0000
  C   C1        1.0  0.73270  0.62550  0.50710  1.0000
  C   C2        1.0  0.26730  0.37450  0.00710  1.0000
  C   C3        1.0  0.23270  0.87450  0.50710  1.0000
  C   C4        1.0  0.76730  0.12550  0.00710  1.0000
  C   C5        1.0  0.76630  0.57060  0.46330  1.0000
  C   C6        1.0  0.23370  0.42940  0.96330  1.0000
  C   C7        1.0  0.26630  0.92940  0.46330  1.0000
  C   C8        1.0  0.73370  0.07060  0.96330  1.0000
  C   C9        1.0  0.68400  0.55900  0.42610  1.0000
  C   C10       1.0  0.31600  0.44100  0.92610  1.0000
  C   C11       1.0  0.18400  0.94100  0.42610  1.0000
  C   C12       1.0  0.81600  0.05900  0.92610  1.0000
  H   H1        1.0  0.70440  0.52230  0.39670  1.0000
  H   H2        1.0  0.29560  0.47770  0.89670  1.0000
  H   H3        1.0  0.20440  0.97770  0.39670  1.0000
  H   H4        1.0  0.79560  0.02230  0.89670  1.0000
  C   C13       1.0  0.57500  0.59900  0.43100  1.0000
  C   C14       1.0  0.42500  0.40100  0.93100  1.0000
  C   C15       1.0  0.07500  0.90100  0.43100  1.0000
  C   C16       1.0  0.92500  0.09900  0.93100  1.0000
  H   H5        1.0  0.52050  0.58860  0.40570  1.0000
  H   H6        1.0  0.47950  0.41140  0.90570  1.0000
  H   H7        1.0  0.02050  0.91140  0.40570  1.0000
  H   H8        1.0  0.97950  0.08860  0.90570  1.0000
  C   C17       1.0  0.54630  0.65420  0.47320  1.0000
  C   C18       1.0  0.45370  0.34580  0.97320  1.0000
  C   C19       1.0  0.04630  0.84580  0.47320  1.0000
  C   C20       1.0  0.95370  0.15420  0.97320  1.0000
  H   H9        1.0  0.47170  0.68310  0.47670  1.0000
  H   H10       1.0  0.52830  0.31690  0.97670  1.0000
  H   H11       1.0  0.97170  0.81690  0.47670  1.0000
  H   H12       1.0  0.02830  0.18310  0.97670  1.0000
  C   C21       1.0  0.62420  0.66820  0.51050  1.0000
  C   C22       1.0  0.37580  0.33180  0.01050  1.0000
  C   C23       1.0  0.12420  0.83180  0.51050  1.0000
  C   C24       1.0  0.87580  0.16820  0.01050  1.0000
  H   H13       1.0  0.60290  0.70790  0.53900  1.0000
  H   H14       1.0  0.39710  0.29210  0.03900  1.0000
  H   H15       1.0  0.10290  0.79210  0.53900  1.0000
  H   H16       1.0  0.89710  0.20790  0.03900  1.0000
  C   C25       1.0  0.81700  0.63880  0.54830  1.0000
  C   C26       1.0  0.18300  0.36120  0.04830  1.0000
  C   C27       1.0  0.31700  0.86120  0.54830  1.0000
  C   C28       1.0  0.68300  0.13880  0.04830  1.0000
  H   H17       1.0  0.78540  0.69180  0.57210  1.0000
  H   H18       1.0  0.21460  0.30820  0.07210  1.0000
  H   H19       1.0  0.28540  0.80820  0.57210  1.0000
  H   H20       1.0  0.71460  0.19180  0.07210  1.0000
  H   H21       1.0  0.88750  0.67090  0.53470  1.0000
  H   H22       1.0  0.11250  0.32910  0.03470  1.0000
  H   H23       1.0  0.38750  0.82910  0.53470  1.0000
  H   H24       1.0  0.61250  0.17090  0.03470  1.0000
  C   C29       1.0  0.84830  0.53490  0.57580  1.0000
  C   C30       1.0  0.15170  0.46510  0.07580  1.0000
  C   C31       1.0  0.34830  0.96510  0.57580  1.0000
  C   C32       1.0  0.65170  0.03490  0.07580  1.0000
  C   C33       1.0  0.88480  0.52810  0.45690  1.0000
  C   C34       1.0  0.11520  0.47190  0.95690  1.0000
  C   C35       1.0  0.38480  0.97190  0.45690  1.0000
  C   C36       1.0  0.61520  0.02810  0.95690  1.0000
  H   H25       1.0  0.91320  0.50260  0.48910  1.0000
  H   H26       1.0  0.08680  0.49740  0.98910  1.0000
  H   H27       1.0  0.41320  0.99740  0.48910  1.0000
  H   H28       1.0  0.58680  0.00260  0.98910  1.0000
  H   H29       1.0  0.93420  0.58900  0.44610  1.0000
  H   H30       1.0  0.06580  0.41100  0.94610  1.0000
  H   H31       1.0  0.43420  0.91100  0.44610  1.0000
  H   H32       1.0  0.56580  0.08900  0.94610  1.0000
  C   C37       1.0  0.89530  0.43570  0.42070  1.0000
  C   C38       1.0  0.10470  0.56430  0.92070  1.0000
  C   C39       1.0  0.39530  0.06430  0.42070  1.0000
  C   C40       1.0  0.60470  0.93570  0.92070  1.0000
  C   C41       1.0  0.14430  0.31390  0.79480  1.0000
  C   C42       1.0  0.85570  0.68610  0.29480  1.0000
  C   C43       1.0  0.64430  0.18610  0.79480  1.0000
  C   C44       1.0  0.35570  0.81390  0.29480  1.0000
  C   C45       1.0  0.11930  0.29600  0.84340  1.0000
  C   C46       1.0  0.88070  0.70400  0.34340  1.0000
  C   C47       1.0  0.61930  0.20400  0.84340  1.0000
  C   C48       1.0  0.38070  0.79600  0.34340  1.0000
  H   H33       1.0  0.06960  0.34460  0.86010  1.0000
  H   H34       1.0  0.93040  0.65540  0.36010  1.0000
  H   H35       1.0  0.56960  0.15540  0.86010  1.0000
  H   H36       1.0  0.43040  0.84460  0.36010  1.0000
  C   C49       1.0  0.16640  0.20650  0.86860  1.0000
  C   C50       1.0  0.83360  0.79350  0.36860  1.0000
  C   C51       1.0  0.66640  0.29350  0.86860  1.0000
  C   C52       1.0  0.33360  0.70650  0.36860  1.0000
  H   H37       1.0  0.14980  0.19580  0.90240  1.0000
  H   H38       1.0  0.85020  0.80420  0.40240  1.0000
  H   H39       1.0  0.64980  0.30420  0.90240  1.0000
  H   H40       1.0  0.35020  0.69580  0.40240  1.0000
  C   C53       1.0  0.23800  0.13270  0.84400  1.0000
  C   C54       1.0  0.76200  0.86730  0.34400  1.0000
  C   C55       1.0  0.73800  0.36730  0.84400  1.0000
  C   C56       1.0  0.26200  0.63270  0.34400  1.0000
  C   C57       1.0  0.26270  0.15260  0.79560  1.0000
  C   C58       1.0  0.73730  0.84740  0.29560  1.0000
  C   C59       1.0  0.76270  0.34740  0.79560  1.0000
  C   C60       1.0  0.23730  0.65260  0.29560  1.0000
  H   H41       1.0  0.31140  0.10350  0.77860  1.0000
  H   H42       1.0  0.68860  0.89650  0.27860  1.0000
  H   H43       1.0  0.81140  0.39650  0.77860  1.0000
  H   H44       1.0  0.18860  0.60350  0.27860  1.0000
  C   C61       1.0  0.21900  0.24160  0.77090  1.0000
  C   C62       1.0  0.78100  0.75840  0.27090  1.0000
  C   C63       1.0  0.71900  0.25840  0.77090  1.0000
  C   C64       1.0  0.28100  0.74160  0.27090  1.0000
  H   H45       1.0  0.23940  0.25400  0.73770  1.0000
  H   H46       1.0  0.76060  0.74600  0.23770  1.0000
  H   H47       1.0  0.73940  0.24600  0.73770  1.0000
  H   H48       1.0  0.26060  0.75400  0.23770  1.0000
  C   C65       1.0  0.09460  0.41070  0.76860  1.0000
  C   C66       1.0  0.90540  0.58930  0.26860  1.0000
  C   C67       1.0  0.59460  0.08930  0.76860  1.0000
  C   C68       1.0  0.40540  0.91070  0.26860  1.0000
  H   H49       1.0  0.15730  0.46090  0.75970  1.0000
  H   H50       1.0  0.84270  0.53910  0.25970  1.0000
  H   H51       1.0  0.65730  0.03910  0.75970  1.0000
  H   H52       1.0  0.34270  0.96090  0.25970  1.0000
  H   H53       1.0  0.04400  0.45010  0.79160  1.0000
  H   H54       1.0  0.95600  0.54990  0.29160  1.0000
  H   H55       1.0  0.54400  0.04990  0.79160  1.0000
  H   H56       1.0  0.45600  0.95010  0.29160  1.0000
  C   C69       1.0  0.02820  0.38480  0.72300  1.0000
  C   C70       1.0  0.97180  0.61520  0.22300  1.0000
  C   C71       1.0  0.52820  0.11520  0.72300  1.0000
  C   C72       1.0  0.47180  0.88480  0.22300  1.0000
  C   C73       1.0  0.28120  0.03250  0.87050  1.0000
  C   C74       1.0  0.71880  0.96750  0.37050  1.0000
  C   C75       1.0  0.78120  0.46750  0.87050  1.0000
  C   C76       1.0  0.21880  0.53250  0.37050  1.0000
  H   H57       1.0  0.28330  0.04800  0.90610  1.0000
  H   H58       1.0  0.71670  0.95200  0.40610  1.0000
  H   H59       1.0  0.78330  0.45200  0.90610  1.0000
  H   H60       1.0  0.21670  0.54800  0.40610  1.0000
  H   H61       1.0  0.36000  0.01740  0.85970  1.0000
  H   H62       1.0  0.64000  0.98260  0.35970  1.0000
  H   H63       1.0  0.86000  0.48260  0.85970  1.0000
  H   H64       1.0  0.14000  0.51740  0.35970  1.0000
  C   C77       1.0  0.20950  0.93160  0.86180  1.0000
  C   C78       1.0  0.79050  0.06840  0.36180  1.0000
  C   C79       1.0  0.70950  0.56840  0.86180  1.0000
  C   C80       1.0  0.29050  0.43160  0.36180  1.0000
  C   C81       1.0  0.80420  0.93280  0.62140  1.0000
  C   C82       1.0  0.19580  0.06720  0.12140  1.0000
  C   C83       1.0  0.30420  0.56720  0.62140  1.0000
  C   C84       1.0  0.69580  0.43280  0.12140  1.0000
  C   C85       1.0  0.71790  0.90930  0.65360  1.0000
  C   C86       1.0  0.28210  0.09070  0.15360  1.0000
  C   C87       1.0  0.21790  0.59070  0.65360  1.0000
  C   C88       1.0  0.78210  0.40930  0.15360  1.0000
  H   H65       1.0  0.64930  0.95030  0.65240  1.0000
  H   H66       1.0  0.35070  0.04970  0.15240  1.0000
  H   H67       1.0  0.14930  0.54970  0.65240  1.0000
  H   H68       1.0  0.85070  0.45030  0.15240  1.0000
  C   C89       1.0  0.73000  0.82600  0.68830  1.0000
  C   C90       1.0  0.27000  0.17400  0.18830  1.0000
  C   C91       1.0  0.23000  0.67400  0.68830  1.0000
  C   C92       1.0  0.77000  0.32600  0.18830  1.0000
  H   H69       1.0  0.66930  0.81020  0.71010  1.0000
  H   H70       1.0  0.33070  0.18980  0.21010  1.0000
  H   H71       1.0  0.16930  0.68980  0.71010  1.0000
  H   H72       1.0  0.83070  0.31020  0.21010  1.0000
  C   C93       1.0  0.83070  0.76570  0.69080  1.0000
  C   C94       1.0  0.16930  0.23430  0.19080  1.0000
  C   C95       1.0  0.33070  0.73430  0.69080  1.0000
  C   C96       1.0  0.66930  0.26570  0.19080  1.0000
  C   C97       1.0  0.91760  0.79030  0.65730  1.0000
  C   C98       1.0  0.08240  0.20970  0.15730  1.0000
  C   C99       1.0  0.41760  0.70970  0.65730  1.0000
  C   C100      1.0  0.58240  0.29030  0.15730  1.0000
  H   H73       1.0  0.98640  0.74950  0.65810  1.0000
  H   H74       1.0  0.01360  0.25050  0.15810  1.0000
  H   H75       1.0  0.48640  0.75050  0.65810  1.0000
  H   H76       1.0  0.51360  0.24950  0.15810  1.0000
  C   C101      1.0  0.90480  0.87240  0.62360  1.0000
  C   C102      1.0  0.09520  0.12760  0.12360  1.0000
  C   C103      1.0  0.40480  0.62760  0.62360  1.0000
  C   C104      1.0  0.59520  0.37240  0.12360  1.0000
  H   H77       1.0  0.96500  0.88840  0.60150  1.0000
  H   H78       1.0  0.03500  0.11160  0.10150  1.0000
  H   H79       1.0  0.46500  0.61160  0.60150  1.0000
  H   H80       1.0  0.53500  0.38840  0.10150  1.0000
  C   C105      1.0  0.79190  0.02580  0.58500  1.0000
  C   C106      1.0  0.20810  0.97420  0.08500  1.0000
  C   C107      1.0  0.29190  0.47420  0.58500  1.0000
  C   C108      1.0  0.70810  0.52580  0.08500  1.0000
  H   H81       1.0  0.71100  0.03230  0.57540  1.0000
  H   H82       1.0  0.28900  0.96770  0.07540  1.0000
  H   H83       1.0  0.21100  0.46770  0.57540  1.0000
  H   H84       1.0  0.78900  0.53230  0.07540  1.0000
  H   H85       1.0  0.83610  0.00820  0.55520  1.0000
  H   H86       1.0  0.16390  0.99180  0.05520  1.0000
  H   H87       1.0  0.33610  0.49180  0.55520  1.0000
  H   H88       1.0  0.66390  0.50820  0.05520  1.0000
  C   C109      1.0  0.83270  0.13650  0.60540  1.0000
  C   C110      1.0  0.16730  0.86350  0.10540  1.0000
  C   C111      1.0  0.33270  0.36350  0.60540  1.0000
  C   C112      1.0  0.66730  0.63650  0.10540  1.0000
  C   C113      1.0  0.84540  0.67770  0.72890  1.0000
  C   C114      1.0  0.15460  0.32230  0.22890  1.0000
  C   C115      1.0  0.34540  0.82230  0.72890  1.0000
  C   C116      1.0  0.65460  0.17770  0.22890  1.0000
  H   H89       1.0  0.77020  0.66260  0.74370  1.0000
  H   H90       1.0  0.22980  0.33740  0.24370  1.0000
  H   H91       1.0  0.27020  0.83740  0.74370  1.0000
  H   H92       1.0  0.72980  0.16260  0.24370  1.0000
  H   H93       1.0  0.87050  0.61000  0.71210  1.0000
  H   H94       1.0  0.12950  0.39000  0.21210  1.0000
  H   H95       1.0  0.37050  0.89000  0.71210  1.0000
  H   H96       1.0  0.62950  0.11000  0.21210  1.0000
  C   C117      1.0  0.92790  0.70230  0.76930  1.0000
  C   C118      1.0  0.07210  0.29770  0.26930  1.0000
  C   C119      1.0  0.42790  0.79770  0.76930  1.0000
  C   C120      1.0  0.57210  0.20230  0.26930  1.0000
