data_image0
_chemical_formula_structural       U8O64C12H4C4H4C4H4C4H4C4H8C8H8C16H4C4H4C4H4C4H4C4H8C8H8C16H4C4H4C4H4C4H4C4H8C8H8C4
_chemical_formula_sum              "U8 O64 C120 H96"
_cell_length_a       7.7336
_cell_length_b       17.124
_cell_length_c       30.9092
_cell_angle_alpha    90
_cell_angle_beta     90
_cell_angle_gamma    90

_space_group_name_H-M_alt    "P 1"
_space_group_IT_number       1

loop_
  _space_group_symop_operation_xyz
  'x, y, z'

loop_
  _atom_site_type_symbol
  _atom_site_label
  _atom_site_symmetry_multiplicity
  _atom_site_fract_x
  _atom_site_fract_y
  _atom_site_fract_z
  _atom_site_occupancy
  U   U1        1.0  0.68567  0.43778  0.70066  1.0000
  U   U2        1.0  0.81433  0.56222  0.20066  1.0000
  U   U3        1.0  0.31433  0.93778  0.79934  1.0000
  U   U4        1.0  0.18567  0.06222  0.29934  1.0000
  U   U5        1.0  0.32272  0.55542  0.48351  1.0000
  U   U6        1.0  0.17728  0.44458  0.98351  1.0000
  U   U7        1.0  0.67728  0.05542  0.01649  1.0000
  U   U8        1.0  0.82272  0.94458  0.51649  1.0000
  O   O1        1.0  0.79300  0.36570  0.73170  1.0000
  O   O2        1.0  0.70700  0.63430  0.23170  1.0000
  O   O3        1.0  0.20700  0.86570  0.76830  1.0000
  O   O4        1.0  0.29300  0.13430  0.26830  1.0000
  O   O5        1.0  0.58310  0.50990  0.66990  1.0000
  O   O6        1.0  0.91690  0.49010  0.16990  1.0000
  O   O7        1.0  0.41690  0.00990  0.83010  1.0000
  O   O8        1.0  0.08310  0.99010  0.33010  1.0000
  O   O9        1.0  0.20190  0.49000  0.45040  1.0000
  O   O10       1.0  0.29810  0.51000  0.95040  1.0000
  O   O11       1.0  0.79810  0.99000  0.04960  1.0000
  O   O12       1.0  0.70190  0.01000  0.54960  1.0000
  O   O13       1.0  0.44440  0.62020  0.51670  1.0000
  O   O14       1.0  0.05560  0.37980  0.01670  1.0000
  O   O15       1.0  0.55560  0.12020  0.98330  1.0000
  O   O16       1.0  0.94440  0.87980  0.48330  1.0000
  O   O17       1.0  0.80990  0.38760  0.63230  1.0000
  O   O18       1.0  0.69010  0.61240  0.13230  1.0000
  O   O19       1.0  0.19010  0.88760  0.86770  1.0000
  O   O20       1.0  0.30990  0.11240  0.36770  1.0000
  O   O21       1.0  0.56520  0.33650  0.65370  1.0000
  O   O22       1.0  0.93480  0.66350  0.15370  1.0000
  O   O23       1.0  0.43480  0.83650  0.84630  1.0000
  O   O24       1.0  0.06520  0.16350  0.34630  1.0000
  O   O25       1.0  0.42480  0.44020  0.52420  1.0000
  O   O26       1.0  0.07520  0.55980  0.02420  1.0000
  O   O27       1.0  0.57520  0.94020  0.97580  1.0000
  O   O28       1.0  0.92480  0.05980  0.47580  1.0000
  O   O29       1.0  0.19490  0.49790  0.54900  1.0000
  O   O30       1.0  0.30510  0.50210  0.04900  1.0000
  O   O31       1.0  0.80510  0.99790  0.95100  1.0000
  O   O32       1.0  0.69490  0.00210  0.45100  1.0000
  O   O33       1.0  0.40200  0.39310  0.72540  1.0000
  O   O34       1.0  0.09800  0.60690  0.22540  1.0000
  O   O35       1.0  0.59800  0.89310  0.77460  1.0000
  O   O36       1.0  0.90200  0.10690  0.27460  1.0000
  O   O37       1.0  0.52090  0.48510  0.76400  1.0000
  O   O38       1.0  0.97910  0.51490  0.26400  1.0000
  O   O39       1.0  0.47910  0.98510  0.73600  1.0000
  O   O40       1.0  0.02090  0.01490  0.23600  1.0000
  O   O41       1.0  0.84390  0.53800  0.74170  1.0000
  O   O42       1.0  0.65610  0.46200  0.24170  1.0000
  O   O43       1.0  0.15610  0.03800  0.75830  1.0000
  O   O44       1.0  0.34390  0.96200  0.25830  1.0000
  O   O45       1.0  0.97170  0.49480  0.68350  1.0000
  O   O46       1.0  0.52830  0.50520  0.18350  1.0000
  O   O47       1.0  0.02830  0.99480  0.81650  1.0000
  O   O48       1.0  0.47170  0.00520  0.31650  1.0000
  O   O49       1.0  0.04490  0.61770  0.50540  1.0000
  O   O50       1.0  0.45510  0.38230  0.00540  1.0000
  O   O51       1.0  0.95510  0.11770  0.99460  1.0000
  O   O52       1.0  0.54490  0.88230  0.49460  1.0000
  O   O53       1.0  0.16750  0.66140  0.44640  1.0000
  O   O54       1.0  0.33250  0.33860  0.94640  1.0000
  O   O55       1.0  0.83250  0.16140  0.05360  1.0000
  O   O56       1.0  0.66750  0.83860  0.55360  1.0000
  O   O57       1.0  0.48690  0.60460  0.42070  1.0000
  O   O58       1.0  0.01310  0.39540  0.92070  1.0000
  O   O59       1.0  0.51310  0.10460  0.07930  1.0000
  O   O60       1.0  0.98690  0.89540  0.57930  1.0000
  O   O61       1.0  0.60280  0.50760  0.45680  1.0000
  O   O62       1.0  0.89720  0.49240  0.95680  1.0000
  O   O63       1.0  0.39720  0.00760  0.04320  1.0000
  O   O64       1.0  0.10280  0.99240  0.54320  1.0000
  C   C1        1.0  0.49120  0.26980  0.56870  1.0000
  C   C2        1.0  0.00880  0.73020  0.06870  1.0000
  C   C3        1.0  0.50880  0.76980  0.93130  1.0000
  C   C4        1.0  0.99120  0.23020  0.43130  1.0000
  C   C5        1.0  0.32000  0.29910  0.57140  1.0000
  C   C6        1.0  0.18000  0.70090  0.07140  1.0000
  C   C7        1.0  0.68000  0.79910  0.92860  1.0000
  C   C8        1.0  0.82000  0.20090  0.42860  1.0000
  C   C9        1.0  0.17900  0.25220  0.55870  1.0000
  C   C10       1.0  0.32100  0.74780  0.05870  1.0000
  C   C11       1.0  0.82100  0.75220  0.94130  1.0000
  C   C12       1.0  0.67900  0.24780  0.44130  1.0000
  H   H1        1.0  0.06480  0.27280  0.56000  1.0000
  H   H2        1.0  0.43520  0.72720  0.06000  1.0000
  H   H3        1.0  0.93520  0.77280  0.94000  1.0000
  H   H4        1.0  0.56480  0.22720  0.44000  1.0000
  C   C13       1.0  0.20400  0.17690  0.54430  1.0000
  C   C14       1.0  0.29600  0.82310  0.04430  1.0000
  C   C15       1.0  0.79600  0.67690  0.95570  1.0000
  C   C16       1.0  0.70400  0.32310  0.45570  1.0000
  H   H5        1.0  0.10880  0.14460  0.53700  1.0000
  H   H6        1.0  0.39120  0.85540  0.03700  1.0000
  H   H7        1.0  0.89120  0.64460  0.96300  1.0000
  H   H8        1.0  0.60880  0.35540  0.46300  1.0000
  C   C17       1.0  0.37470  0.14880  0.54080  1.0000
  C   C18       1.0  0.12530  0.85120  0.04080  1.0000
  C   C19       1.0  0.62530  0.64880  0.95920  1.0000
  C   C20       1.0  0.87470  0.35120  0.45920  1.0000
  H   H9        1.0  0.39510  0.09780  0.52980  1.0000
  H   H10       1.0  0.10490  0.90220  0.02980  1.0000
  H   H11       1.0  0.60490  0.59780  0.97020  1.0000
  H   H12       1.0  0.89510  0.40220  0.47020  1.0000
  C   C21       1.0  0.51190  0.19500  0.55310  1.0000
  C   C22       1.0  0.98810  0.80500  0.05310  1.0000
  C   C23       1.0  0.48810  0.69500  0.94690  1.0000
  C   C24       1.0  0.01190  0.30500  0.44690  1.0000
  H   H13       1.0  0.62560  0.17440  0.55070  1.0000
  H   H14       1.0  0.87440  0.82560  0.05070  1.0000
  H   H15       1.0  0.37440  0.67440  0.94930  1.0000
  H   H16       1.0  0.12560  0.32560  0.44930  1.0000
  C   C25       1.0  0.64590  0.31860  0.57760  1.0000
  C   C26       1.0  0.85410  0.68140  0.07760  1.0000
  C   C27       1.0  0.35410  0.81860  0.92240  1.0000
  C   C28       1.0  0.14590  0.18140  0.42240  1.0000
  H   H17       1.0  0.64030  0.36500  0.55860  1.0000
  H   H18       1.0  0.85970  0.63500  0.05860  1.0000
  H   H19       1.0  0.35970  0.86500  0.94140  1.0000
  H   H20       1.0  0.14030  0.13500  0.44140  1.0000
  H   H21       1.0  0.74930  0.28830  0.56900  1.0000
  H   H22       1.0  0.75070  0.71170  0.06900  1.0000
  H   H23       1.0  0.25070  0.78830  0.93100  1.0000
  H   H24       1.0  0.24930  0.21170  0.43100  1.0000
  C   C29       1.0  0.67420  0.34730  0.62390  1.0000
  C   C30       1.0  0.82580  0.65270  0.12390  1.0000
  C   C31       1.0  0.32580  0.84730  0.87610  1.0000
  C   C32       1.0  0.17420  0.15270  0.37610  1.0000
  C   C33       1.0  0.27900  0.38160  0.58600  1.0000
  C   C34       1.0  0.22100  0.61840  0.08600  1.0000
  C   C35       1.0  0.72100  0.88160  0.91400  1.0000
  C   C36       1.0  0.77900  0.11840  0.41400  1.0000
  H   H25       1.0  0.35470  0.39490  0.61070  1.0000
  H   H26       1.0  0.14530  0.60510  0.11070  1.0000
  H   H27       1.0  0.64530  0.89490  0.88930  1.0000
  H   H28       1.0  0.85470  0.10510  0.38930  1.0000
  H   H29       1.0  0.15790  0.38340  0.59630  1.0000
  H   H30       1.0  0.34210  0.61660  0.09630  1.0000
  H   H31       1.0  0.84210  0.88340  0.90370  1.0000
  H   H32       1.0  0.65790  0.11660  0.40370  1.0000
  C   C37       1.0  0.30200  0.44300  0.55100  1.0000
  C   C38       1.0  0.19800  0.55700  0.05100  1.0000
  C   C39       1.0  0.69800  0.94300  0.94900  1.0000
  C   C40       1.0  0.80200  0.05700  0.44900  1.0000
  C   C41       1.0  0.19930  0.52350  0.80380  1.0000
  C   C42       1.0  0.30070  0.47650  0.30380  1.0000
  C   C43       1.0  0.80070  0.02350  0.69620  1.0000
  C   C44       1.0  0.69930  0.97650  0.19620  1.0000
  C   C45       1.0  0.15760  0.58780  0.77870  1.0000
  C   C46       1.0  0.34240  0.41220  0.27870  1.0000
  C   C47       1.0  0.84240  0.08780  0.72130  1.0000
  C   C48       1.0  0.65760  0.91220  0.22130  1.0000
  C   C49       1.0  0.13480  0.65880  0.79840  1.0000
  C   C50       1.0  0.36520  0.34120  0.29840  1.0000
  C   C51       1.0  0.86520  0.15880  0.70160  1.0000
  C   C52       1.0  0.63480  0.84120  0.20160  1.0000
  H   H33       1.0  0.11600  0.70370  0.78100  1.0000
  H   H34       1.0  0.38400  0.29630  0.28100  1.0000
  H   H35       1.0  0.88400  0.20370  0.71900  1.0000
  H   H36       1.0  0.61600  0.79630  0.21900  1.0000
  C   C53       1.0  0.13850  0.66720  0.84310  1.0000
  C   C54       1.0  0.36150  0.33280  0.34310  1.0000
  C   C55       1.0  0.86150  0.16720  0.65690  1.0000
  C   C56       1.0  0.63850  0.83280  0.15690  1.0000
  H   H37       1.0  0.11830  0.71650  0.85620  1.0000
  H   H38       1.0  0.38170  0.28350  0.35620  1.0000
  H   H39       1.0  0.88170  0.21650  0.64380  1.0000
  H   H40       1.0  0.61830  0.78350  0.14380  1.0000
  C   C57       1.0  0.17200  0.60200  0.86780  1.0000
  C   C58       1.0  0.32800  0.39800  0.36780  1.0000
  C   C59       1.0  0.82800  0.10200  0.63220  1.0000
  C   C60       1.0  0.67200  0.89800  0.13220  1.0000
  H   H41       1.0  0.17230  0.60620  0.89840  1.0000
  H   H42       1.0  0.32770  0.39380  0.39840  1.0000
  H   H43       1.0  0.82770  0.10620  0.60160  1.0000
  H   H44       1.0  0.67230  0.89380  0.10160  1.0000
  C   C61       1.0  0.20620  0.53070  0.84880  1.0000
  C   C62       1.0  0.29380  0.46930  0.34880  1.0000
  C   C63       1.0  0.79380  0.03070  0.65120  1.0000
  C   C64       1.0  0.70620  0.96930  0.15120  1.0000
  H   H45       1.0  0.23410  0.48670  0.86630  1.0000
  H   H46       1.0  0.26590  0.51330  0.36630  1.0000
  H   H47       1.0  0.76590  0.98670  0.63370  1.0000
  H   H48       1.0  0.73410  0.01330  0.13370  1.0000
  C   C65       1.0  0.23260  0.44540  0.78380  1.0000
  C   C66       1.0  0.26740  0.55460  0.28380  1.0000
  C   C67       1.0  0.76740  0.94540  0.71620  1.0000
  C   C68       1.0  0.73260  0.05460  0.21620  1.0000
  H   H49       1.0  0.13300  0.43160  0.76520  1.0000
  H   H50       1.0  0.36700  0.56840  0.26520  1.0000
  H   H51       1.0  0.86700  0.93160  0.73480  1.0000
  H   H52       1.0  0.63300  0.06840  0.23480  1.0000
  H   H53       1.0  0.23930  0.40590  0.80710  1.0000
  H   H54       1.0  0.26070  0.59410  0.30710  1.0000
  H   H55       1.0  0.76070  0.90590  0.69290  1.0000
  H   H56       1.0  0.73930  0.09410  0.19290  1.0000
  C   C69       1.0  0.39630  0.44070  0.75700  1.0000
  C   C70       1.0  0.10370  0.55930  0.25700  1.0000
  C   C71       1.0  0.60370  0.94070  0.74300  1.0000
  C   C72       1.0  0.89630  0.05930  0.24300  1.0000
  C   C73       1.0  0.14130  0.58080  0.72890  1.0000
  C   C74       1.0  0.35870  0.41920  0.22890  1.0000
  C   C75       1.0  0.85870  0.08080  0.77110  1.0000
  C   C76       1.0  0.64130  0.91920  0.27110  1.0000
  H   H57       1.0  0.24280  0.55280  0.71710  1.0000
  H   H58       1.0  0.25720  0.44720  0.21710  1.0000
  H   H59       1.0  0.75720  0.05280  0.78290  1.0000
  H   H60       1.0  0.74280  0.94720  0.28290  1.0000
  H   H61       1.0  0.13790  0.63360  0.71580  1.0000
  H   H62       1.0  0.36210  0.36640  0.21580  1.0000
  H   H63       1.0  0.86210  0.13360  0.78420  1.0000
  H   H64       1.0  0.63790  0.86640  0.28420  1.0000
  C   C77       1.0  0.97430  0.53600  0.71750  1.0000
  C   C78       1.0  0.52570  0.46400  0.21750  1.0000
  C   C79       1.0  0.02570  0.03600  0.78250  1.0000
  C   C80       1.0  0.47430  0.96400  0.28250  1.0000
  C   C81       1.0  0.85260  0.70830  0.40960  1.0000
  C   C82       1.0  0.64740  0.29170  0.90960  1.0000
  C   C83       1.0  0.14740  0.20830  0.09040  1.0000
  C   C84       1.0  0.35260  0.79170  0.59040  1.0000
  C   C85       1.0  0.80660  0.64500  0.38240  1.0000
  C   C86       1.0  0.69340  0.35500  0.88240  1.0000
  C   C87       1.0  0.19340  0.14500  0.11760  1.0000
  C   C88       1.0  0.30660  0.85500  0.61760  1.0000
  C   C89       1.0  0.80000  0.65670  0.33730  1.0000
  C   C90       1.0  0.70000  0.34330  0.83730  1.0000
  C   C91       1.0  0.20000  0.15670  0.16270  1.0000
  C   C92       1.0  0.30000  0.84330  0.66270  1.0000
  H   H65       1.0  0.77250  0.61420  0.31880  1.0000
  H   H66       1.0  0.72750  0.38580  0.81880  1.0000
  H   H67       1.0  0.22750  0.11420  0.18120  1.0000
  H   H68       1.0  0.27250  0.88580  0.68120  1.0000
  C   C93       1.0  0.83400  0.72850  0.31990  1.0000
  C   C94       1.0  0.66600  0.27150  0.81990  1.0000
  C   C95       1.0  0.16600  0.22850  0.18010  1.0000
  C   C96       1.0  0.33400  0.77150  0.68010  1.0000
  H   H69       1.0  0.82210  0.73630  0.28960  1.0000
  H   H70       1.0  0.67790  0.26370  0.78960  1.0000
  H   H71       1.0  0.17790  0.23630  0.21040  1.0000
  H   H72       1.0  0.32210  0.76370  0.71040  1.0000
  C   C97       1.0  0.88520  0.79120  0.34660  1.0000
  C   C98       1.0  0.61480  0.20880  0.84660  1.0000
  C   C99       1.0  0.11480  0.29120  0.15340  1.0000
  C   C100      1.0  0.38520  0.70880  0.65340  1.0000
  H   H73       1.0  0.91590  0.84010  0.33430  1.0000
  H   H74       1.0  0.58410  0.15990  0.83430  1.0000
  H   H75       1.0  0.08410  0.34010  0.16570  1.0000
  H   H76       1.0  0.41590  0.65990  0.66570  1.0000
  C   C101      1.0  0.89040  0.78030  0.39160  1.0000
  C   C102      1.0  0.60960  0.21970  0.89160  1.0000
  C   C103      1.0  0.10960  0.28030  0.10840  1.0000
  C   C104      1.0  0.39040  0.71970  0.60840  1.0000
  H   H77       1.0  0.92020  0.82280  0.40990  1.0000
  H   H78       1.0  0.57980  0.17720  0.90990  1.0000
  H   H79       1.0  0.07980  0.32280  0.09010  1.0000
  H   H80       1.0  0.42020  0.67720  0.59010  1.0000
  C   C105      1.0  0.87550  0.69690  0.45800  1.0000
  C   C106      1.0  0.62450  0.30310  0.95800  1.0000
  C   C107      1.0  0.12450  0.19690  0.04200  1.0000
  C   C108      1.0  0.37550  0.80310  0.54200  1.0000
  H   H81       1.0  0.87230  0.74870  0.47210  1.0000
  H   H82       1.0  0.62770  0.25130  0.97210  1.0000
  H   H83       1.0  0.12770  0.24870  0.02790  1.0000
  H   H84       1.0  0.37230  0.75130  0.52790  1.0000
  H   H85       1.0  0.77610  0.66640  0.46900  1.0000
  H   H86       1.0  0.72390  0.33360  0.96900  1.0000
  H   H87       1.0  0.22390  0.16640  0.03100  1.0000
  H   H88       1.0  0.27610  0.83360  0.53100  1.0000
  C   C109      1.0  0.03420  0.65750  0.47070  1.0000
  C   C110      1.0  0.46580  0.34250  0.97070  1.0000
  C   C111      1.0  0.96580  0.15750  0.02930  1.0000
  C   C112      1.0  0.53420  0.84250  0.52930  1.0000
  C   C113      1.0  0.77710  0.56360  0.39990  1.0000
  C   C114      1.0  0.72290  0.43640  0.89990  1.0000
  C   C115      1.0  0.22290  0.06360  0.10010  1.0000
  C   C116      1.0  0.27710  0.93640  0.60010  1.0000
  H   H89       1.0  0.87780  0.54810  0.41780  1.0000
  H   H90       1.0  0.62220  0.45190  0.91780  1.0000
  H   H91       1.0  0.12220  0.04810  0.08220  1.0000
  H   H92       1.0  0.37780  0.95190  0.58220  1.0000
  H   H93       1.0  0.76820  0.52650  0.37550  1.0000
  H   H94       1.0  0.73180  0.47350  0.87550  1.0000
  H   H95       1.0  0.23180  0.02650  0.12450  1.0000
  H   H96       1.0  0.26820  0.97350  0.62450  1.0000
  C   C117      1.0  0.61170  0.55850  0.42760  1.0000
  C   C118      1.0  0.88830  0.44150  0.92760  1.0000
  C   C119      1.0  0.38830  0.05850  0.07240  1.0000
  C   C120      1.0  0.11170  0.94150  0.57240  1.0000
