data_image0
_chemical_formula_structural       Mn2O2C4H2C2H2C8H4N2C2H4C2O4C2H4C2O4C4H2C4H6O4Mn2O2C4H2C2H2C8H4N2C2H4C2O4C2H4C2O4C4H2C4H6O6H4
_chemical_formula_sum              "Mn4 O30 C60 H52 N4"
_cell_length_a       11.0083
_cell_length_b       12.5277
_cell_length_c       16.1039
_cell_angle_alpha    91.777
_cell_angle_beta     108.46
_cell_angle_gamma    100.321

_space_group_name_H-M_alt    "P 1"
_space_group_IT_number       1

loop_
  _space_group_symop_operation_xyz
  'x, y, z'

loop_
  _atom_site_type_symbol
  _atom_site_label
  _atom_site_symmetry_multiplicity
  _atom_site_fract_x
  _atom_site_fract_y
  _atom_site_fract_z
  _atom_site_occupancy
  Mn  Mn1       1.0  0.58052  0.40466  0.54699  1.0000
  Mn  Mn2       1.0  0.41948  0.59534  0.45301  1.0000
  O   O1        1.0  0.41610  0.42650  0.43290  1.0000
  O   O2        1.0  0.58390  0.57350  0.56710  1.0000
  C   C1        1.0  0.31480  0.34390  0.40390  1.0000
  C   C2        1.0  0.68520  0.65610  0.59610  1.0000
  C   C3        1.0  0.18740  0.35880  0.39400  1.0000
  C   C4        1.0  0.81260  0.64120  0.60600  1.0000
  H   H1        1.0  0.17340  0.42920  0.40420  1.0000
  H   H2        1.0  0.82660  0.57080  0.59580  1.0000
  C   C5        1.0  0.08370  0.27280  0.36980  1.0000
  C   C6        1.0  0.91630  0.72720  0.63020  1.0000
  H   H3        1.0  0.99990  0.28490  0.36470  1.0000
  H   H4        1.0  0.00010  0.71510  0.63530  1.0000
  C   C7        1.0  0.09980  0.16750  0.35240  1.0000
  C   C8        1.0  0.90020  0.83250  0.64760  1.0000
  C   C9        1.0  0.22570  0.15500  0.35770  1.0000
  C   C10       1.0  0.77430  0.84500  0.64230  1.0000
  C   C11       1.0  0.33340  0.23970  0.38290  1.0000
  C   C12       1.0  0.66660  0.76030  0.61710  1.0000
  C   C13       1.0  0.46880  0.22240  0.39220  1.0000
  C   C14       1.0  0.53120  0.77760  0.60780  1.0000
  H   H5        1.0  0.46270  0.15010  0.36420  1.0000
  H   H6        1.0  0.53730  0.84990  0.63580  1.0000
  H   H7        1.0  0.50940  0.27680  0.36150  1.0000
  H   H8        1.0  0.49060  0.72320  0.63850  1.0000
  N   N1        1.0  0.55300  0.23090  0.48570  1.0000
  N   N2        1.0  0.44700  0.76910  0.51430  1.0000
  C   C15       1.0  0.68660  0.21810  0.49010  1.0000
  C   C16       1.0  0.31340  0.78190  0.50990  1.0000
  H   H9        1.0  0.68040  0.15910  0.44670  1.0000
  H   H10       1.0  0.31960  0.84090  0.55330  1.0000
  H   H11       1.0  0.73250  0.19840  0.54860  1.0000
  H   H12       1.0  0.26750  0.80160  0.45140  1.0000
  C   C17       1.0  0.76340  0.32280  0.47220  1.0000
  C   C18       1.0  0.23660  0.67720  0.52780  1.0000
  O   O3        1.0  0.72550  0.40980  0.47950  1.0000
  O   O4        1.0  0.27450  0.59020  0.52050  1.0000
  O   O5        1.0  0.86550  0.31890  0.45770  1.0000
  O   O6        1.0  0.13450  0.68110  0.54230  1.0000
  C   C19       1.0  0.49240  0.15690  0.53690  1.0000
  C   C20       1.0  0.50760  0.84310  0.46310  1.0000
  H   H13       1.0  0.56110  0.13550  0.58510  1.0000
  H   H14       1.0  0.43890  0.86450  0.41490  1.0000
  H   H15       1.0  0.44080  0.09090  0.49900  1.0000
  H   H16       1.0  0.55920  0.90910  0.50100  1.0000
  C   C21       1.0  0.40490  0.20900  0.57450  1.0000
  C   C22       1.0  0.59510  0.79100  0.42550  1.0000
  O   O7        1.0  0.43730  0.31060  0.59560  1.0000
  O   O8        1.0  0.56270  0.68940  0.40440  1.0000
  O   O9        1.0  0.30650  0.15000  0.58290  1.0000
  O   O10       1.0  0.69350  0.85000  0.41710  1.0000
  C   C23       1.0  0.99850  0.07240  0.33440  1.0000
  C   C24       1.0  0.00150  0.92760  0.66560  1.0000
  C   C25       1.0  0.02570  0.97460  0.32060  1.0000
  C   C26       1.0  0.97430  0.02540  0.67940  1.0000
  H   H17       1.0  0.95950  0.91210  0.31070  1.0000
  H   H18       1.0  0.04050  0.08790  0.68930  1.0000
  C   C27       1.0  0.15110  0.96210  0.32030  1.0000
  C   C28       1.0  0.84890  0.03790  0.67970  1.0000
  C   C29       1.0  0.86440  0.08270  0.33430  1.0000
  C   C30       1.0  0.13560  0.91730  0.66570  1.0000
  H   H19       1.0  0.80520  0.01260  0.31500  1.0000
  H   H20       1.0  0.19480  0.98740  0.68500  1.0000
  H   H21       1.0  0.83280  0.13580  0.29470  1.0000
  H   H22       1.0  0.16720  0.86420  0.70530  1.0000
  H   H23       1.0  0.86850  0.10610  0.39330  1.0000
  H   H24       1.0  0.13150  0.89390  0.60670  1.0000
  O   O11       1.0  0.24860  0.05300  0.34000  1.0000
  O   O12       1.0  0.75140  0.94700  0.66000  1.0000
  O   O13       1.0  0.18280  0.87650  0.30430  1.0000
  O   O14       1.0  0.81720  0.12350  0.69570  1.0000
  Mn  Mn3       1.0  0.84526  0.44894  0.94221  1.0000
  Mn  Mn4       1.0  0.15474  0.55106  0.05779  1.0000
  O   O15       1.0  0.98510  0.60400  0.98130  1.0000
  O   O16       1.0  0.01490  0.39600  0.01870  1.0000
  C   C31       1.0  0.94480  0.69660  0.98880  1.0000
  C   C32       1.0  0.05520  0.30340  0.01120  1.0000
  C   C33       1.0  0.00350  0.77130  0.06370  1.0000
  C   C34       1.0  0.99650  0.22870  0.93630  1.0000
  H   H25       1.0  0.07530  0.75710  0.10890  1.0000
  H   H26       1.0  0.92470  0.24290  0.89110  1.0000
  C   C35       1.0  0.95840  0.86430  0.07210  1.0000
  C   C36       1.0  0.04160  0.13570  0.92790  1.0000
  H   H27       1.0  0.99950  0.91230  0.12340  1.0000
  H   H28       1.0  0.00050  0.08770  0.87660  1.0000
  C   C37       1.0  0.85320  0.88970  0.00680  1.0000
  C   C38       1.0  0.14680  0.11030  0.99320  1.0000
  C   C39       1.0  0.79550  0.81510  0.93250  1.0000
  C   C40       1.0  0.20450  0.18490  0.06750  1.0000
  C   C41       1.0  0.83810  0.72020  0.92070  1.0000
  C   C42       1.0  0.16190  0.27980  0.07930  1.0000
  C   C43       1.0  0.77550  0.64400  0.83820  1.0000
  C   C44       1.0  0.22450  0.35600  0.16180  1.0000
  H   H29       1.0  0.71630  0.67990  0.79430  1.0000
  H   H30       1.0  0.28370  0.32010  0.20570  1.0000
  H   H31       1.0  0.84370  0.62980  0.81480  1.0000
  H   H32       1.0  0.15630  0.37020  0.18520  1.0000
  N   N3        1.0  0.70160  0.53920  0.85100  1.0000
  N   N4        1.0  0.29840  0.46080  0.14900  1.0000
  C   C45       1.0  0.64580  0.47030  0.76630  1.0000
  C   C46       1.0  0.35420  0.52970  0.23370  1.0000
  H   H33       1.0  0.60800  0.51440  0.71940  1.0000
  H   H34       1.0  0.39200  0.48560  0.28060  1.0000
  H   H35       1.0  0.57580  0.41180  0.76960  1.0000
  H   H36       1.0  0.42420  0.58820  0.23040  1.0000
  C   C47       1.0  0.74980  0.42150  0.74500  1.0000
  C   C48       1.0  0.25020  0.57850  0.25500  1.0000
  O   O17       1.0  0.74410  0.51240  0.02540  1.0000
  O   O18       1.0  0.25590  0.48760  0.97460  1.0000
  O   O19       1.0  0.60580  0.61930  0.03160  1.0000
  O   O20       1.0  0.39420  0.38070  0.96840  1.0000
  C   C49       1.0  0.60210  0.55560  0.88980  1.0000
  C   C50       1.0  0.39790  0.44440  0.11020  1.0000
  H   H37       1.0  0.52750  0.49430  0.86890  1.0000
  H   H38       1.0  0.47250  0.50570  0.13110  1.0000
  H   H39       1.0  0.57120  0.62220  0.87060  1.0000
  H   H40       1.0  0.42880  0.37780  0.12940  1.0000
  C   C51       1.0  0.65540  0.56470  0.99010  1.0000
  C   C52       1.0  0.34460  0.43530  0.00990  1.0000
  O   O21       1.0  0.84930  0.41260  0.80800  1.0000
  O   O22       1.0  0.15070  0.58740  0.19200  1.0000
  O   O23       1.0  0.73290  0.39250  0.66690  1.0000
  O   O24       1.0  0.26710  0.60750  0.33310  1.0000
  C   C53       1.0  0.80020  0.98670  0.01070  1.0000
  C   C54       1.0  0.19980  0.01330  0.98930  1.0000
  C   C55       1.0  0.69610  0.00090  0.94470  1.0000
  C   C56       1.0  0.30390  0.99910  0.05530  1.0000
  H   H41       1.0  0.66010  0.06270  0.94870  1.0000
  H   H42       1.0  0.33990  0.93730  0.05130  1.0000
  C   C57       1.0  0.63740  0.92440  0.86790  1.0000
  C   C58       1.0  0.36260  0.07560  0.13210  1.0000
  C   C59       1.0  0.86010  0.06890  0.09010  1.0000
  C   C60       1.0  0.13990  0.93110  0.90990  1.0000
  H   H43       1.0  0.82150  0.13300  0.07910  1.0000
  H   H44       1.0  0.17850  0.86700  0.92090  1.0000
  H   H45       1.0  0.95360  0.08940  0.10150  1.0000
  H   H46       1.0  0.04640  0.91060  0.89850  1.0000
  H   H47       1.0  0.84390  0.03720  0.14070  1.0000
  H   H48       1.0  0.15610  0.96280  0.85930  1.0000
  O   O25       1.0  0.69020  0.83500  0.86480  1.0000
  O   O26       1.0  0.30980  0.16500  0.13520  1.0000
  O   O27       1.0  0.54450  0.93310  0.80410  1.0000
  O   O28       1.0  0.45550  0.06690  0.19590  1.0000
  O   O29       1.0  0.70770  0.29780  0.92240  1.0000
  O   O30       1.0  0.29230  0.70220  0.07760  1.0000
  H   H49       1.0  0.68200  0.24600  0.87700  1.0000
  H   H50       1.0  0.31800  0.75400  0.12300  1.0000
  H   H51       1.0  0.65200  0.29300  0.95300  1.0000
  H   H52       1.0  0.34800  0.70700  0.04700  1.0000
