data_image0
_chemical_formula_structural       Zn2N2O12C6H2C2H2C4H2C6N2H12
_chemical_formula_sum              "Zn2 N4 O12 C18 H18"
_cell_length_a       8.333
_cell_length_b       9.78
_cell_length_c       10.67
_cell_angle_alpha    67.335
_cell_angle_beta     68.389
_cell_angle_gamma    68.702

_space_group_name_H-M_alt    "P 1"
_space_group_IT_number       1

loop_
  _space_group_symop_operation_xyz
  'x, y, z'

loop_
  _atom_site_type_symbol
  _atom_site_label
  _atom_site_symmetry_multiplicity
  _atom_site_fract_x
  _atom_site_fract_y
  _atom_site_fract_z
  _atom_site_occupancy
  Zn  Zn1       1.0  0.30902  0.06347  0.21798  1.0000
  Zn  Zn2       1.0  0.69098  0.93653  0.78202  1.0000
  N   N1        1.0  0.20240  0.01330  0.10667  1.0000
  N   N2        1.0  0.79760  0.98670  0.89333  1.0000
  O   O1        1.0  0.12055  0.17499  0.35501  1.0000
  O   O2        1.0  0.87945  0.82501  0.64499  1.0000
  O   O3        1.0  0.06464  0.33961  0.15443  1.0000
  O   O4        1.0  0.93536  0.66039  0.84557  1.0000
  O   O5        1.0  0.43179  0.87917  0.34748  1.0000
  O   O6        1.0  0.56821  0.12083  0.65252  1.0000
  O   O7        1.0  0.57619  0.80935  0.15099  1.0000
  O   O8        1.0  0.42381  0.19065  0.84901  1.0000
  O   O9        1.0  0.57036  0.53910  0.79752  1.0000
  O   O10       1.0  0.42964  0.46090  0.20248  1.0000
  O   O11       1.0  0.77902  0.31718  0.80584  1.0000
  O   O12       1.0  0.22098  0.68282  0.19416  1.0000
  C   C1        1.0  0.03470  0.30200  0.28547  1.0000
  C   C2        1.0  0.96530  0.69800  0.71453  1.0000
  C   C3        1.0  0.89100  0.40690  0.36646  1.0000
  C   C4        1.0  0.10900  0.59310  0.63354  1.0000
  C   C5        1.0  0.78910  0.54110  0.29329  1.0000
  C   C6        1.0  0.21090  0.45890  0.70671  1.0000
  H   H1        1.0  0.81250  0.56420  0.19620  1.0000
  H   H2        1.0  0.18750  0.43580  0.80380  1.0000
  C   C7        1.0  0.85660  0.37410  0.51178  1.0000
  C   C8        1.0  0.14340  0.62590  0.48822  1.0000
  H   H3        1.0  0.92400  0.28470  0.56130  1.0000
  H   H4        1.0  0.07600  0.71530  0.43870  1.0000
  C   C9        1.0  0.54690  0.78500  0.27960  1.0000
  C   C10       1.0  0.45310  0.21500  0.72040  1.0000
  C   C11       1.0  0.61940  0.60650  0.50896  1.0000
  C   C12       1.0  0.38060  0.39350  0.49104  1.0000
  H   H5        1.0  0.52790  0.67230  0.55660  1.0000
  H   H6        1.0  0.47210  0.32770  0.44340  1.0000
  C   C13       1.0  0.72250  0.47360  0.58341  1.0000
  C   C14       1.0  0.27750  0.52640  0.41659  1.0000
  C   C15       1.0  0.68730  0.44000  0.74110  1.0000
  C   C16       1.0  0.31270  0.56000  0.25890  1.0000
  C   C17       1.0  0.65310  0.64090  0.36318  1.0000
  C   C18       1.0  0.34690  0.35910  0.63682  1.0000
  N   N3        1.0  0.48010  0.19682  0.10974  1.0000
  N   N4        1.0  0.51990  0.80318  0.89026  1.0000
  H   H7        1.0  0.44600  0.27600  0.13200  1.0000
  H   H8        1.0  0.55400  0.72400  0.86800  1.0000
  H   H9        1.0  0.48800  0.22200  0.02100  1.0000
  H   H10       1.0  0.51200  0.77800  0.97900  1.0000
  H   H11       1.0  0.25700  0.04900  0.02000  1.0000
  H   H12       1.0  0.74300  0.95100  0.98000  1.0000
  H   H13       1.0  0.21500  0.91600  0.12600  1.0000
  H   H14       1.0  0.78500  0.08400  0.87400  1.0000
  H   H15       1.0  0.09400  0.05700  0.11500  1.0000
  H   H16       1.0  0.90600  0.94300  0.88500  1.0000
  H   H17       1.0  0.58400  0.15900  0.12500  1.0000
  H   H18       1.0  0.41600  0.84100  0.87500  1.0000
