data_image0
_chemical_formula_structural       Zn2O12C4H2C4H2C4H2C6
_chemical_formula_sum              "Zn2 O12 C18 H6"
_cell_length_a       7.791
_cell_length_b       8.989
_cell_length_c       9.16
_cell_angle_alpha    116.446
_cell_angle_beta     104.488
_cell_angle_gamma    98.089

_space_group_name_H-M_alt    "P 1"
_space_group_IT_number       1

loop_
  _space_group_symop_operation_xyz
  'x, y, z'

loop_
  _atom_site_type_symbol
  _atom_site_label
  _atom_site_symmetry_multiplicity
  _atom_site_fract_x
  _atom_site_fract_y
  _atom_site_fract_z
  _atom_site_occupancy
  Zn  Zn1       1.0  0.09397  0.60541  0.24789  1.0000
  Zn  Zn2       1.0  0.90603  0.39459  0.75211  1.0000
  O   O1        1.0  0.95190  0.68980  0.10640  1.0000
  O   O2        1.0  0.04810  0.31020  0.89360  1.0000
  O   O3        1.0  0.73360  0.51010  0.84450  1.0000
  O   O4        1.0  0.26640  0.48990  0.15550  1.0000
  O   O5        1.0  0.09750  0.54950  0.74190  1.0000
  O   O6        1.0  0.90250  0.45050  0.25810  1.0000
  O   O7        1.0  0.80150  0.18130  0.53130  1.0000
  O   O8        1.0  0.19850  0.81870  0.46870  1.0000
  O   O9        1.0  0.06470  0.81690  0.86400  1.0000
  O   O10       1.0  0.93530  0.18310  0.13600  1.0000
  O   O11       1.0  0.60570  0.29410  0.41870  1.0000
  O   O12       1.0  0.39430  0.70590  0.58130  1.0000
  C   C1        1.0  0.65950  0.74160  0.04580  1.0000
  C   C2        1.0  0.34050  0.25840  0.95420  1.0000
  C   C3        1.0  0.47530  0.68100  0.93570  1.0000
  C   C4        1.0  0.52470  0.31900  0.06430  1.0000
  H   H1        1.0  0.43280  0.57300  0.83460  1.0000
  H   H2        1.0  0.56720  0.42700  0.16540  1.0000
  C   C5        1.0  0.35400  0.78030  0.97530  1.0000
  C   C6        1.0  0.64600  0.21970  0.02470  1.0000
  C   C7        1.0  0.41830  0.94190  0.12610  1.0000
  C   C8        1.0  0.58170  0.05810  0.87390  1.0000
  H   H3        1.0  0.33980  0.01130  0.15000  1.0000
  H   H4        1.0  0.66020  0.98870  0.85000  1.0000
  C   C9        1.0  0.59980  0.00060  0.24170  1.0000
  C   C10       1.0  0.40020  0.99940  0.75830  1.0000
  C   C11       1.0  0.71970  0.89950  0.20080  1.0000
  C   C12       1.0  0.28030  0.10050  0.79920  1.0000
  H   H5        1.0  0.84080  0.93800  0.27770  1.0000
  H   H6        1.0  0.15920  0.06200  0.72230  1.0000
  C   C13       1.0  0.79120  0.63980  0.99730  1.0000
  C   C14       1.0  0.20880  0.36020  0.00270  1.0000
  C   C15       1.0  0.15740  0.71420  0.85320  1.0000
  C   C16       1.0  0.84260  0.28580  0.14680  1.0000
  C   C17       1.0  0.67100  0.17240  0.40750  1.0000
  C   C18       1.0  0.32900  0.82760  0.59250  1.0000
