data_image0
_chemical_formula_structural       C12H4C12H4C8H4C4Co2O28H8
_chemical_formula_sum              "C36 H20 Co2 O28"
_cell_length_a       11.3384
_cell_length_b       16.61
_cell_length_c       11.943
_cell_angle_alpha    90
_cell_angle_beta     102.483
_cell_angle_gamma    90

_space_group_name_H-M_alt    "P 1"
_space_group_IT_number       1

loop_
  _space_group_symop_operation_xyz
  'x, y, z'

loop_
  _atom_site_type_symbol
  _atom_site_label
  _atom_site_symmetry_multiplicity
  _atom_site_fract_x
  _atom_site_fract_y
  _atom_site_fract_z
  _atom_site_occupancy
  C   C1        1.0  0.11342  0.86309  0.15254  1.0000
  C   C2        1.0  0.38658  0.36309  0.34746  1.0000
  C   C3        1.0  0.88658  0.13691  0.84746  1.0000
  C   C4        1.0  0.61342  0.63691  0.65254  1.0000
  C   C5        1.0  0.22476  0.81504  0.20123  1.0000
  C   C6        1.0  0.27524  0.31504  0.29877  1.0000
  C   C7        1.0  0.77524  0.18496  0.79877  1.0000
  C   C8        1.0  0.72476  0.68496  0.70123  1.0000
  C   C9        1.0  0.33457  0.84168  0.18243  1.0000
  C   C10       1.0  0.16543  0.34168  0.31757  1.0000
  C   C11       1.0  0.66543  0.15832  0.81757  1.0000
  C   C12       1.0  0.83457  0.65832  0.68243  1.0000
  H   H1        1.0  0.33710  0.88720  0.13760  1.0000
  H   H2        1.0  0.16290  0.38720  0.36240  1.0000
  H   H3        1.0  0.66290  0.11280  0.86240  1.0000
  H   H4        1.0  0.83710  0.61280  0.63760  1.0000
  C   C13       1.0  0.44065  0.80146  0.22956  1.0000
  C   C14       1.0  0.05935  0.30146  0.27044  1.0000
  C   C15       1.0  0.55935  0.19854  0.77044  1.0000
  C   C16       1.0  0.94065  0.69854  0.72956  1.0000
  C   C17       1.0  0.55983  0.83564  0.21669  1.0000
  C   C18       1.0  0.94017  0.33564  0.28331  1.0000
  C   C19       1.0  0.44017  0.16436  0.78331  1.0000
  C   C20       1.0  0.05983  0.66436  0.71669  1.0000
  C   C21       1.0  0.43431  0.73144  0.29030  1.0000
  C   C22       1.0  0.06569  0.23144  0.20970  1.0000
  C   C23       1.0  0.56569  0.26856  0.70970  1.0000
  C   C24       1.0  0.93431  0.76856  0.79030  1.0000
  H   H5        1.0  0.50470  0.70290  0.31990  1.0000
  H   H6        1.0  0.99530  0.20290  0.18010  1.0000
  H   H7        1.0  0.49530  0.29710  0.68010  1.0000
  H   H8        1.0  0.00470  0.79710  0.81990  1.0000
  C   C25       1.0  0.32508  0.70288  0.30790  1.0000
  C   C26       1.0  0.17492  0.20288  0.19210  1.0000
  C   C27       1.0  0.67492  0.29712  0.69210  1.0000
  C   C28       1.0  0.82508  0.79712  0.80790  1.0000
  C   C29       1.0  0.21964  0.74602  0.26617  1.0000
  C   C30       1.0  0.28036  0.24602  0.23383  1.0000
  C   C31       1.0  0.78036  0.25398  0.73383  1.0000
  C   C32       1.0  0.71964  0.75398  0.76617  1.0000
  H   H9        1.0  0.14660  0.72900  0.28140  1.0000
  H   H10       1.0  0.35340  0.22900  0.21860  1.0000
  H   H11       1.0  0.85340  0.27100  0.71860  1.0000
  H   H12       1.0  0.64660  0.77100  0.78140  1.0000
  C   C33       1.0  0.32664  0.62649  0.37602  1.0000
  C   C34       1.0  0.17336  0.12649  0.12398  1.0000
  C   C35       1.0  0.67336  0.37351  0.62398  1.0000
  C   C36       1.0  0.82664  0.87351  0.87602  1.0000
  Co  Co1       1.0  0.00000  0.00000  0.00000  1.0000
  Co  Co2       1.0  0.50000  0.50000  0.50000  1.0000
  O   O1        1.0  0.12087  0.91075  0.07274  1.0000
  O   O2        1.0  0.37913  0.41075  0.42726  1.0000
  O   O3        1.0  0.87913  0.08925  0.92726  1.0000
  O   O4        1.0  0.62087  0.58925  0.57274  1.0000
  O   O5        1.0  0.02274  0.85475  0.19447  1.0000
  O   O6        1.0  0.47726  0.35475  0.30553  1.0000
  O   O7        1.0  0.97726  0.14525  0.80553  1.0000
  O   O8        1.0  0.52274  0.64525  0.69447  1.0000
  O   O9        1.0  0.24069  0.61079  0.42200  1.0000
  O   O10       1.0  0.25931  0.11079  0.07800  1.0000
  O   O11       1.0  0.75931  0.38921  0.57800  1.0000
  O   O12       1.0  0.74069  0.88921  0.92200  1.0000
  O   O13       1.0  0.41963  0.58368  0.38289  1.0000
  O   O14       1.0  0.08037  0.08368  0.11711  1.0000
  O   O15       1.0  0.58037  0.41632  0.61711  1.0000
  O   O16       1.0  0.91963  0.91632  0.88289  1.0000
  O   O17       1.0  0.65324  0.81028  0.28335  1.0000
  O   O18       1.0  0.84676  0.31028  0.21665  1.0000
  O   O19       1.0  0.34676  0.18972  0.71665  1.0000
  O   O20       1.0  0.15324  0.68972  0.78335  1.0000
  O   O21       1.0  0.55625  0.88930  0.14282  1.0000
  O   O22       1.0  0.94375  0.38930  0.35718  1.0000
  O   O23       1.0  0.44375  0.11070  0.85718  1.0000
  O   O24       1.0  0.05625  0.61070  0.64282  1.0000
  O   O25       1.0  0.12941  0.03162  0.89717  1.0000
  O   O26       1.0  0.37059  0.53162  0.60283  1.0000
  O   O27       1.0  0.87059  0.96838  0.10283  1.0000
  O   O28       1.0  0.62941  0.46838  0.39717  1.0000
  H   H13       1.0  0.18590  0.05640  0.93680  1.0000
  H   H14       1.0  0.31410  0.55640  0.56320  1.0000
  H   H15       1.0  0.81410  0.94360  0.06320  1.0000
  H   H16       1.0  0.68590  0.44360  0.43680  1.0000
  H   H17       1.0  0.08600  0.06920  0.85700  1.0000
  H   H18       1.0  0.41400  0.56920  0.64300  1.0000
  H   H19       1.0  0.91400  0.93080  0.14300  1.0000
  H   H20       1.0  0.58600  0.43080  0.35700  1.0000
