data_image0
_chemical_formula_structural       Zn12O64C12H4C4H4C8H4C4H4C8H4C4H4C8H4C4H4C16H4C4H4C8H4C4H4C8H4C4H4C8H4C4H4C16H4C4H4C8H4C4H4C8H4C4H4C8H4C4H4C16H4C4H4C8H4C4H4C8H4C4H4C8H4C4H4C4
_chemical_formula_sum              "Zn12 O64 C224 H128"
_cell_length_a       24.7046
_cell_length_b       14.523
_cell_length_c       22.3879
_cell_angle_alpha    90
_cell_angle_beta     90
_cell_angle_gamma    90

_space_group_name_H-M_alt    "P 1"
_space_group_IT_number       1

loop_
  _space_group_symop_operation_xyz
  'x, y, z'

loop_
  _atom_site_type_symbol
  _atom_site_label
  _atom_site_symmetry_multiplicity
  _atom_site_fract_x
  _atom_site_fract_y
  _atom_site_fract_z
  _atom_site_occupancy
  Zn  Zn1       1.0  0.33974  0.03638  0.95093  1.0000
  Zn  Zn2       1.0  0.66026  0.96362  0.45093  1.0000
  Zn  Zn3       1.0  0.83974  0.46362  0.95093  1.0000
  Zn  Zn4       1.0  0.16026  0.53638  0.45093  1.0000
  Zn  Zn5       1.0  0.34370  0.99497  0.78634  1.0000
  Zn  Zn6       1.0  0.65630  0.00503  0.28634  1.0000
  Zn  Zn7       1.0  0.84370  0.50503  0.78634  1.0000
  Zn  Zn8       1.0  0.15630  0.49497  0.28634  1.0000
  Zn  Zn9       1.0  0.34381  0.95753  0.62934  1.0000
  Zn  Zn10      1.0  0.65619  0.04247  0.12934  1.0000
  Zn  Zn11      1.0  0.84381  0.54247  0.62934  1.0000
  Zn  Zn12      1.0  0.15619  0.45753  0.12934  1.0000
  O   O1        1.0  0.90470  0.54070  0.93960  1.0000
  O   O2        1.0  0.09530  0.45930  0.43960  1.0000
  O   O3        1.0  0.40470  0.95930  0.93960  1.0000
  O   O4        1.0  0.59530  0.04070  0.43960  1.0000
  O   O5        1.0  0.87650  0.59210  0.84990  1.0000
  O   O6        1.0  0.12350  0.40790  0.34990  1.0000
  O   O7        1.0  0.37650  0.90790  0.84990  1.0000
  O   O8        1.0  0.62350  0.09210  0.34990  1.0000
  O   O9        1.0  0.27260  0.97890  0.92660  1.0000
  O   O10       1.0  0.72740  0.02110  0.42660  1.0000
  O   O11       1.0  0.77260  0.52110  0.92660  1.0000
  O   O12       1.0  0.22740  0.47890  0.42660  1.0000
  O   O13       1.0  0.26850  0.99140  0.82490  1.0000
  O   O14       1.0  0.73150  0.00860  0.32490  1.0000
  O   O15       1.0  0.76850  0.50860  0.82490  1.0000
  O   O16       1.0  0.23150  0.49140  0.32490  1.0000
  O   O17       1.0  0.36970  0.10860  0.83510  1.0000
  O   O18       1.0  0.63030  0.89140  0.33510  1.0000
  O   O19       1.0  0.86970  0.39140  0.83510  1.0000
  O   O20       1.0  0.13030  0.60860  0.33510  1.0000
  O   O21       1.0  0.34750  0.16540  0.93000  1.0000
  O   O22       1.0  0.65250  0.83460  0.43000  1.0000
  O   O23       1.0  0.84750  0.33460  0.93000  1.0000
  O   O24       1.0  0.15250  0.66540  0.43000  1.0000
  O   O25       1.0  0.30700  0.08610  0.72660  1.0000
  O   O26       1.0  0.69300  0.91390  0.22660  1.0000
  O   O27       1.0  0.80700  0.41390  0.72660  1.0000
  O   O28       1.0  0.19300  0.58610  0.22660  1.0000
  O   O29       1.0  0.27380  0.01760  0.64680  1.0000
  O   O30       1.0  0.72620  0.98240  0.14680  1.0000
  O   O31       1.0  0.77380  0.48240  0.64680  1.0000
  O   O32       1.0  0.22620  0.51760  0.14680  1.0000
  O   O33       1.0  0.91730  0.49580  0.74370  1.0000
  O   O34       1.0  0.08270  0.50420  0.24370  1.0000
  O   O35       1.0  0.41730  0.00420  0.74370  1.0000
  O   O36       1.0  0.58270  0.99580  0.24370  1.0000
  O   O37       1.0  0.90810  0.46900  0.64660  1.0000
  O   O38       1.0  0.09190  0.53100  0.14660  1.0000
  O   O39       1.0  0.40810  0.03100  0.64660  1.0000
  O   O40       1.0  0.59190  0.96900  0.14660  1.0000
  O   O41       1.0  0.32110  0.87880  0.73890  1.0000
  O   O42       1.0  0.67890  0.12120  0.23890  1.0000
  O   O43       1.0  0.82110  0.62120  0.73890  1.0000
  O   O44       1.0  0.17890  0.37880  0.23890  1.0000
  O   O45       1.0  0.35590  0.83170  0.65490  1.0000
  O   O46       1.0  0.64410  0.16830  0.15490  1.0000
  O   O47       1.0  0.85590  0.66830  0.65490  1.0000
  O   O48       1.0  0.14410  0.33170  0.15490  1.0000
  O   O49       1.0  0.34850  0.96450  0.54560  1.0000
  O   O50       1.0  0.65150  0.03550  0.04560  1.0000
  O   O51       1.0  0.84850  0.53550  0.54560  1.0000
  O   O52       1.0  0.15150  0.46450  0.04560  1.0000
  O   O53       1.0  0.26860  0.89960  0.52880  1.0000
  O   O54       1.0  0.73140  0.10040  0.02880  1.0000
  O   O55       1.0  0.76860  0.60040  0.52880  1.0000
  O   O56       1.0  0.23140  0.39960  0.02880  1.0000
  O   O57       1.0  0.40490  0.08970  0.05390  1.0000
  O   O58       1.0  0.59510  0.91030  0.55390  1.0000
  O   O59       1.0  0.90490  0.41030  0.05390  1.0000
  O   O60       1.0  0.09510  0.58970  0.55390  1.0000
  O   O61       1.0  0.32100  0.04130  0.03770  1.0000
  O   O62       1.0  0.67900  0.95870  0.53770  1.0000
  O   O63       1.0  0.82100  0.45870  0.03770  1.0000
  O   O64       1.0  0.17900  0.54130  0.53770  1.0000
  C   C1        1.0  0.91140  0.58690  0.88840  1.0000
  C   C2        1.0  0.08860  0.41310  0.38840  1.0000
  C   C3        1.0  0.41140  0.91310  0.88840  1.0000
  C   C4        1.0  0.58860  0.08690  0.38840  1.0000
  C   C5        1.0  0.96250  0.64030  0.88750  1.0000
  C   C6        1.0  0.03750  0.35970  0.38750  1.0000
  C   C7        1.0  0.46250  0.85970  0.88750  1.0000
  C   C8        1.0  0.53750  0.14030  0.38750  1.0000
  C   C9        1.0  0.99240  0.65560  0.94030  1.0000
  C   C10       1.0  0.00760  0.34440  0.44030  1.0000
  C   C11       1.0  0.49240  0.84440  0.94030  1.0000
  C   C12       1.0  0.50760  0.15560  0.44030  1.0000
  H   H1        1.0  0.98166  0.62993  0.97643  1.0000
  H   H2        1.0  0.01834  0.37007  0.47643  1.0000
  H   H3        1.0  0.48166  0.87007  0.97643  1.0000
  H   H4        1.0  0.51834  0.12993  0.47643  1.0000
  C   C13       1.0  0.03750  0.70900  0.93640  1.0000
  C   C14       1.0  0.96250  0.29100  0.43640  1.0000
  C   C15       1.0  0.53750  0.79100  0.93640  1.0000
  C   C16       1.0  0.46250  0.20900  0.43640  1.0000
  H   H5        1.0  0.05740  0.72035  0.97094  1.0000
  H   H6        1.0  0.94260  0.27965  0.47094  1.0000
  H   H7        1.0  0.55740  0.77965  0.97094  1.0000
  H   H8        1.0  0.44260  0.22035  0.47094  1.0000
  C   C17       1.0  0.05530  0.74810  0.88190  1.0000
  C   C18       1.0  0.94470  0.25190  0.38190  1.0000
  C   C19       1.0  0.55530  0.75190  0.88190  1.0000
  C   C20       1.0  0.44470  0.24810  0.38190  1.0000
  C   C21       1.0  0.02390  0.73300  0.83140  1.0000
  C   C22       1.0  0.97610  0.26700  0.33140  1.0000
  C   C23       1.0  0.52390  0.76700  0.83140  1.0000
  C   C24       1.0  0.47610  0.23300  0.33140  1.0000
  H   H9        1.0  0.03464  0.75705  0.79480  1.0000
  H   H10       1.0  0.96536  0.24295  0.29480  1.0000
  H   H11       1.0  0.53464  0.74295  0.79480  1.0000
  H   H12       1.0  0.46536  0.25705  0.29480  1.0000
  C   C25       1.0  0.97720  0.68300  0.83530  1.0000
  C   C26       1.0  0.02280  0.31700  0.33530  1.0000
  C   C27       1.0  0.47720  0.81700  0.83530  1.0000
  C   C28       1.0  0.52280  0.18300  0.33530  1.0000
  H   H13       1.0  0.95494  0.67787  0.80199  1.0000
  H   H14       1.0  0.04506  0.32213  0.30199  1.0000
  H   H15       1.0  0.45494  0.82213  0.80199  1.0000
  H   H16       1.0  0.54506  0.17787  0.30199  1.0000
  C   C29       1.0  0.10710  0.80160  0.87780  1.0000
  C   C30       1.0  0.89290  0.19840  0.37780  1.0000
  C   C31       1.0  0.60710  0.69840  0.87780  1.0000
  C   C32       1.0  0.39290  0.30160  0.37780  1.0000
  C   C33       1.0  0.12100  0.85820  0.92540  1.0000
  C   C34       1.0  0.87900  0.14180  0.42540  1.0000
  C   C35       1.0  0.62100  0.64180  0.92540  1.0000
  C   C36       1.0  0.37900  0.35820  0.42540  1.0000
  H   H17       1.0  0.09748  0.86113  0.95774  1.0000
  H   H18       1.0  0.90252  0.13887  0.45774  1.0000
  H   H19       1.0  0.59748  0.63887  0.95774  1.0000
  H   H20       1.0  0.40252  0.36113  0.45774  1.0000
  C   C37       1.0  0.16750  0.91020  0.92750  1.0000
  C   C38       1.0  0.83250  0.08980  0.42750  1.0000
  C   C39       1.0  0.66750  0.58980  0.92750  1.0000
  C   C40       1.0  0.33250  0.41020  0.42750  1.0000
  H   H21       1.0  0.17744  0.94378  0.96113  1.0000
  H   H22       1.0  0.82256  0.05622  0.46113  1.0000
  H   H23       1.0  0.67744  0.55622  0.96113  1.0000
  H   H24       1.0  0.32256  0.44378  0.46113  1.0000
  C   C41       1.0  0.20000  0.90870  0.87350  1.0000
  C   C42       1.0  0.80000  0.09130  0.37350  1.0000
  C   C43       1.0  0.70000  0.59130  0.87350  1.0000
  C   C44       1.0  0.30000  0.40870  0.37350  1.0000
  C   C45       1.0  0.18570  0.85500  0.82750  1.0000
  C   C46       1.0  0.81430  0.14500  0.32750  1.0000
  C   C47       1.0  0.68570  0.64500  0.82750  1.0000
  C   C48       1.0  0.31430  0.35500  0.32750  1.0000
  H   H25       1.0  0.20747  0.85199  0.79365  1.0000
  H   H26       1.0  0.79253  0.14801  0.29365  1.0000
  H   H27       1.0  0.70747  0.64801  0.79365  1.0000
  H   H28       1.0  0.29253  0.35199  0.29365  1.0000
  C   C49       1.0  0.13820  0.80380  0.83040  1.0000
  C   C50       1.0  0.86180  0.19620  0.33040  1.0000
  C   C51       1.0  0.63820  0.69620  0.83040  1.0000
  C   C52       1.0  0.36180  0.30380  0.33040  1.0000
  H   H29       1.0  0.12807  0.76945  0.79718  1.0000
  H   H30       1.0  0.87193  0.23055  0.29718  1.0000
  H   H31       1.0  0.62807  0.73055  0.79718  1.0000
  H   H32       1.0  0.37193  0.26945  0.29718  1.0000
  C   C53       1.0  0.25280  0.96490  0.87540  1.0000
  C   C54       1.0  0.74720  0.03510  0.37540  1.0000
  C   C55       1.0  0.75280  0.53510  0.87540  1.0000
  C   C56       1.0  0.24720  0.46490  0.37540  1.0000
  C   C57       1.0  0.27150  0.07240  0.68690  1.0000
  C   C58       1.0  0.72850  0.92760  0.18690  1.0000
  C   C59       1.0  0.77150  0.42760  0.68690  1.0000
  C   C60       1.0  0.22850  0.57240  0.18690  1.0000
  C   C61       1.0  0.22100  0.13080  0.69200  1.0000
  C   C62       1.0  0.77900  0.86920  0.19200  1.0000
  C   C63       1.0  0.72100  0.36920  0.69200  1.0000
  C   C64       1.0  0.27900  0.63080  0.19200  1.0000
  C   C65       1.0  0.18160  0.12850  0.64380  1.0000
  C   C66       1.0  0.81840  0.87150  0.14380  1.0000
  C   C67       1.0  0.68160  0.37150  0.64380  1.0000
  C   C68       1.0  0.31840  0.62850  0.14380  1.0000
  H   H33       1.0  0.18780  0.09128  0.61074  1.0000
  H   H34       1.0  0.81220  0.90872  0.11074  1.0000
  H   H35       1.0  0.68780  0.40872  0.61074  1.0000
  H   H36       1.0  0.31220  0.59128  0.11074  1.0000
  C   C69       1.0  0.13710  0.17850  0.64650  1.0000
  C   C70       1.0  0.86290  0.82150  0.14650  1.0000
  C   C71       1.0  0.63710  0.32150  0.64650  1.0000
  C   C72       1.0  0.36290  0.67850  0.14650  1.0000
  H   H37       1.0  0.11141  0.17353  0.61628  1.0000
  H   H38       1.0  0.88859  0.82647  0.11628  1.0000
  H   H39       1.0  0.61141  0.32647  0.61628  1.0000
  H   H40       1.0  0.38859  0.67353  0.11628  1.0000
  C   C73       1.0  0.12760  0.24140  0.69620  1.0000
  C   C74       1.0  0.87240  0.75860  0.19620  1.0000
  C   C75       1.0  0.62760  0.25860  0.69620  1.0000
  C   C76       1.0  0.37240  0.74140  0.19620  1.0000
  C   C77       1.0  0.16550  0.24580  0.74130  1.0000
  C   C78       1.0  0.83450  0.75420  0.24130  1.0000
  C   C79       1.0  0.66550  0.25420  0.74130  1.0000
  C   C80       1.0  0.33450  0.74580  0.24130  1.0000
  H   H41       1.0  0.15925  0.28478  0.77351  1.0000
  H   H42       1.0  0.84075  0.71522  0.27351  1.0000
  H   H43       1.0  0.65925  0.21522  0.77351  1.0000
  H   H44       1.0  0.34075  0.78478  0.27351  1.0000
  C   C81       1.0  0.21310  0.19340  0.74010  1.0000
  C   C82       1.0  0.78690  0.80660  0.24010  1.0000
  C   C83       1.0  0.71310  0.30660  0.74010  1.0000
  C   C84       1.0  0.28690  0.69340  0.24010  1.0000
  H   H45       1.0  0.23891  0.19937  0.77002  1.0000
  H   H46       1.0  0.76109  0.80063  0.27002  1.0000
  H   H47       1.0  0.73891  0.30063  0.77002  1.0000
  H   H48       1.0  0.26109  0.69937  0.27002  1.0000
  C   C85       1.0  0.07750  0.29990  0.69540  1.0000
  C   C86       1.0  0.92250  0.70010  0.19540  1.0000
  C   C87       1.0  0.57750  0.20010  0.69540  1.0000
  C   C88       1.0  0.42250  0.79990  0.19540  1.0000
  C   C89       1.0  0.05240  0.31710  0.75000  1.0000
  C   C90       1.0  0.94760  0.68290  0.25000  1.0000
  C   C91       1.0  0.55240  0.18290  0.75000  1.0000
  C   C92       1.0  0.44760  0.81710  0.25000  1.0000
  H   H49       1.0  0.06639  0.29326  0.78532  1.0000
  H   H50       1.0  0.93361  0.70674  0.28532  1.0000
  H   H51       1.0  0.56639  0.20674  0.78532  1.0000
  H   H52       1.0  0.43361  0.79326  0.28532  1.0000
  C   C93       1.0  0.00330  0.37380  0.75030  1.0000
  C   C94       1.0  0.99670  0.62620  0.25030  1.0000
  C   C95       1.0  0.50330  0.12620  0.75030  1.0000
  C   C96       1.0  0.49670  0.87380  0.25030  1.0000
  H   H53       1.0  0.98638  0.38747  0.78632  1.0000
  H   H54       1.0  0.01362  0.61253  0.28632  1.0000
  H   H55       1.0  0.48638  0.11253  0.78632  1.0000
  H   H56       1.0  0.51362  0.88747  0.28632  1.0000
  C   C97       1.0  0.98170  0.40750  0.69710  1.0000
  C   C98       1.0  0.01830  0.59250  0.19710  1.0000
  C   C99       1.0  0.48170  0.09250  0.69710  1.0000
  C   C100      1.0  0.51830  0.90750  0.19710  1.0000
  C   C101      1.0  0.00750  0.38220  0.64370  1.0000
  C   C102      1.0  0.99250  0.61780  0.14370  1.0000
  C   C103      1.0  0.50750  0.11780  0.64370  1.0000
  C   C104      1.0  0.49250  0.88220  0.14370  1.0000
  H   H57       1.0  0.99248  0.40117  0.60772  1.0000
  H   H58       1.0  0.00752  0.59883  0.10772  1.0000
  H   H59       1.0  0.49248  0.09883  0.60772  1.0000
  H   H60       1.0  0.50752  0.90117  0.10772  1.0000
  C   C105      1.0  0.05610  0.32840  0.64230  1.0000
  C   C106      1.0  0.94390  0.67160  0.14230  1.0000
  C   C107      1.0  0.55610  0.17160  0.64230  1.0000
  C   C108      1.0  0.44390  0.82840  0.14230  1.0000
  H   H61       1.0  0.07259  0.31324  0.60627  1.0000
  H   H62       1.0  0.92741  0.68676  0.10627  1.0000
  H   H63       1.0  0.57259  0.18676  0.60627  1.0000
  H   H64       1.0  0.42741  0.81324  0.10627  1.0000
  C   C109      1.0  0.93150  0.46030  0.69700  1.0000
  C   C110      1.0  0.06850  0.53970  0.19700  1.0000
  C   C111      1.0  0.43150  0.03970  0.69700  1.0000
  C   C112      1.0  0.56850  0.96030  0.19700  1.0000
  C   C113      1.0  0.35950  0.17410  0.87470  1.0000
  C   C114      1.0  0.64050  0.82590  0.37470  1.0000
  C   C115      1.0  0.85950  0.32590  0.87470  1.0000
  C   C116      1.0  0.14050  0.67410  0.37470  1.0000
  C   C117      1.0  0.36260  0.26980  0.84570  1.0000
  C   C118      1.0  0.63740  0.73020  0.34570  1.0000
  C   C119      1.0  0.86260  0.23020  0.84570  1.0000
  C   C120      1.0  0.13740  0.76980  0.34570  1.0000
  C   C121      1.0  0.36700  0.34490  0.88590  1.0000
  C   C122      1.0  0.63300  0.65510  0.38590  1.0000
  C   C123      1.0  0.86700  0.15510  0.88590  1.0000
  C   C124      1.0  0.13300  0.84490  0.38590  1.0000
  H   H65       1.0  0.36655  0.33599  0.92705  1.0000
  H   H66       1.0  0.63345  0.66401  0.42705  1.0000
  H   H67       1.0  0.86655  0.16401  0.92705  1.0000
  H   H68       1.0  0.13345  0.83599  0.42705  1.0000
  C   C125      1.0  0.37200  0.43150  0.86140  1.0000
  C   C126      1.0  0.62800  0.56850  0.36140  1.0000
  C   C127      1.0  0.87200  0.06850  0.86140  1.0000
  C   C128      1.0  0.12800  0.93150  0.36140  1.0000
  H   H69       1.0  0.38070  0.48052  0.88634  1.0000
  H   H70       1.0  0.61930  0.51948  0.38634  1.0000
  H   H71       1.0  0.88070  0.01948  0.88634  1.0000
  H   H72       1.0  0.11930  0.98052  0.38634  1.0000
  C   C129      1.0  0.36430  0.44840  0.80050  1.0000
  C   C130      1.0  0.63570  0.55160  0.30050  1.0000
  C   C131      1.0  0.86430  0.05160  0.80050  1.0000
  C   C132      1.0  0.13570  0.94840  0.30050  1.0000
  C   C133      1.0  0.35770  0.37270  0.76110  1.0000
  C   C134      1.0  0.64230  0.62730  0.26110  1.0000
  C   C135      1.0  0.85770  0.12730  0.76110  1.0000
  C   C136      1.0  0.14230  0.87270  0.26110  1.0000
  H   H73       1.0  0.35300  0.38142  0.72031  1.0000
  H   H74       1.0  0.64700  0.61858  0.22031  1.0000
  H   H75       1.0  0.85300  0.11858  0.72031  1.0000
  H   H76       1.0  0.14700  0.88142  0.22031  1.0000
  C   C137      1.0  0.35850  0.28260  0.78670  1.0000
  C   C138      1.0  0.64150  0.71740  0.28670  1.0000
  C   C139      1.0  0.85850  0.21740  0.78670  1.0000
  C   C140      1.0  0.14150  0.78260  0.28670  1.0000
  H   H77       1.0  0.35601  0.23163  0.76175  1.0000
  H   H78       1.0  0.64399  0.76837  0.26175  1.0000
  H   H79       1.0  0.85601  0.26837  0.76175  1.0000
  H   H80       1.0  0.14399  0.73163  0.26175  1.0000
  C   C141      1.0  0.36160  0.54480  0.77590  1.0000
  C   C142      1.0  0.63840  0.45520  0.27590  1.0000
  C   C143      1.0  0.86160  0.95520  0.77590  1.0000
  C   C144      1.0  0.13840  0.04480  0.27590  1.0000
  C   C145      1.0  0.33810  0.61890  0.81030  1.0000
  C   C146      1.0  0.66190  0.38110  0.31030  1.0000
  C   C147      1.0  0.83810  0.88110  0.81030  1.0000
  C   C148      1.0  0.16190  0.11890  0.31030  1.0000
  H   H81       1.0  0.32581  0.60686  0.84876  1.0000
  H   H82       1.0  0.67419  0.39314  0.34876  1.0000
  H   H83       1.0  0.82581  0.89314  0.84876  1.0000
  H   H84       1.0  0.17419  0.10686  0.34876  1.0000
  C   C149      1.0  0.33360  0.69990  0.78950  1.0000
  C   C150      1.0  0.66640  0.30010  0.28950  1.0000
  C   C151      1.0  0.83360  0.80010  0.78950  1.0000
  C   C152      1.0  0.16640  0.19990  0.28950  1.0000
  H   H85       1.0  0.32009  0.74595  0.81422  1.0000
  H   H86       1.0  0.67991  0.25405  0.31422  1.0000
  H   H87       1.0  0.82009  0.75405  0.81422  1.0000
  H   H88       1.0  0.17991  0.24595  0.31422  1.0000
  C   C153      1.0  0.34840  0.72290  0.72990  1.0000
  C   C154      1.0  0.65160  0.27710  0.22990  1.0000
  C   C155      1.0  0.84840  0.77710  0.72990  1.0000
  C   C156      1.0  0.15160  0.22290  0.22990  1.0000
  C   C157      1.0  0.37380  0.56250  0.71890  1.0000
  C   C158      1.0  0.62620  0.43750  0.21890  1.0000
  C   C159      1.0  0.87380  0.93750  0.71890  1.0000
  C   C160      1.0  0.12620  0.06250  0.21890  1.0000
  H   H89       1.0  0.38325  0.51551  0.69261  1.0000
  H   H90       1.0  0.61675  0.48449  0.19261  1.0000
  H   H91       1.0  0.88325  0.98449  0.69261  1.0000
  H   H92       1.0  0.11675  0.01551  0.19261  1.0000
  C   C161      1.0  0.37170  0.65400  0.70030  1.0000
  C   C162      1.0  0.62830  0.34600  0.20030  1.0000
  C   C163      1.0  0.87170  0.84600  0.70030  1.0000
  C   C164      1.0  0.12830  0.15400  0.20030  1.0000
  H   H93       1.0  0.38798  0.66817  0.66395  1.0000
  H   H94       1.0  0.61202  0.33183  0.16395  1.0000
  H   H95       1.0  0.88798  0.83183  0.66395  1.0000
  H   H96       1.0  0.11202  0.16817  0.16395  1.0000
  C   C165      1.0  0.34300  0.81910  0.70860  1.0000
  C   C166      1.0  0.65700  0.18090  0.20860  1.0000
  C   C167      1.0  0.84300  0.68090  0.70860  1.0000
  C   C168      1.0  0.15700  0.31910  0.20860  1.0000
  C   C169      1.0  0.31000  0.93650  0.51030  1.0000
  C   C170      1.0  0.69000  0.06350  0.01030  1.0000
  C   C171      1.0  0.81000  0.56350  0.51030  1.0000
  C   C172      1.0  0.19000  0.43650  0.01030  1.0000
  C   C173      1.0  0.31600  0.95850  0.44390  1.0000
  C   C174      1.0  0.68400  0.04150  0.94390  1.0000
  C   C175      1.0  0.81600  0.54150  0.44390  1.0000
  C   C176      1.0  0.18400  0.45850  0.94390  1.0000
  C   C177      1.0  0.35930  0.01200  0.42710  1.0000
  C   C178      1.0  0.64070  0.98800  0.92710  1.0000
  C   C179      1.0  0.85930  0.48800  0.42710  1.0000
  C   C180      1.0  0.14070  0.51200  0.92710  1.0000
  H   H97       1.0  0.38436  0.03351  0.45477  1.0000
  H   H98       1.0  0.61564  0.96649  0.95477  1.0000
  H   H99       1.0  0.88436  0.46649  0.45477  1.0000
  H   H100      1.0  0.11564  0.53351  0.95477  1.0000
  C   C181      1.0  0.36380  0.03350  0.36370  1.0000
  C   C182      1.0  0.63620  0.96650  0.86370  1.0000
  C   C183      1.0  0.86380  0.46650  0.36370  1.0000
  C   C184      1.0  0.13620  0.53350  0.86370  1.0000
  H   H101      1.0  0.39097  0.07284  0.35051  1.0000
  H   H102      1.0  0.60903  0.92716  0.85051  1.0000
  H   H103      1.0  0.89097  0.42716  0.35051  1.0000
  H   H104      1.0  0.10903  0.57284  0.85051  1.0000
  C   C185      1.0  0.32860  0.99650  0.32370  1.0000
  C   C186      1.0  0.67140  0.00350  0.82370  1.0000
  C   C187      1.0  0.82860  0.50350  0.32370  1.0000
  C   C188      1.0  0.17140  0.49650  0.82370  1.0000
  C   C189      1.0  0.28500  0.94620  0.34430  1.0000
  C   C190      1.0  0.71500  0.05380  0.84430  1.0000
  C   C191      1.0  0.78500  0.55380  0.34430  1.0000
  C   C192      1.0  0.21500  0.44620  0.84430  1.0000
  H   H105      1.0  0.25868  0.92659  0.31745  1.0000
  H   H106      1.0  0.74132  0.07341  0.81745  1.0000
  H   H107      1.0  0.75868  0.57341  0.31745  1.0000
  H   H108      1.0  0.24132  0.42659  0.81745  1.0000
  C   C193      1.0  0.27990  0.92460  0.40350  1.0000
  C   C194      1.0  0.72010  0.07540  0.90350  1.0000
  C   C195      1.0  0.77990  0.57540  0.40350  1.0000
  C   C196      1.0  0.22010  0.42460  0.90350  1.0000
  H   H109      1.0  0.25178  0.88680  0.41622  1.0000
  H   H110      1.0  0.74822  0.11320  0.91622  1.0000
  H   H111      1.0  0.75178  0.61320  0.41622  1.0000
  H   H112      1.0  0.24822  0.38680  0.91622  1.0000
  C   C197      1.0  0.33700  0.02450  0.26160  1.0000
  C   C198      1.0  0.66300  0.97550  0.76160  1.0000
  C   C199      1.0  0.83700  0.47550  0.26160  1.0000
  C   C200      1.0  0.16300  0.52450  0.76160  1.0000
  C   C201      1.0  0.38610  0.04280  0.23470  1.0000
  C   C202      1.0  0.61390  0.95720  0.73470  1.0000
  C   C203      1.0  0.88610  0.45720  0.23470  1.0000
  C   C204      1.0  0.11390  0.54280  0.73470  1.0000
  H   H113      1.0  0.41674  0.04534  0.25876  1.0000
  H   H114      1.0  0.58326  0.95466  0.75876  1.0000
  H   H115      1.0  0.91674  0.45466  0.25876  1.0000
  H   H116      1.0  0.08326  0.54534  0.75876  1.0000
  C   C205      1.0  0.39250  0.05730  0.17440  1.0000
  C   C206      1.0  0.60750  0.94270  0.67440  1.0000
  C   C207      1.0  0.89250  0.44270  0.17440  1.0000
  C   C208      1.0  0.10750  0.55730  0.67440  1.0000
  H   H117      1.0  0.42731  0.07136  0.16130  1.0000
  H   H118      1.0  0.57269  0.92864  0.66130  1.0000
  H   H119      1.0  0.92731  0.42864  0.16130  1.0000
  H   H120      1.0  0.07269  0.57136  0.66130  1.0000
  C   C209      1.0  0.34830  0.05280  0.12660  1.0000
  C   C210      1.0  0.65170  0.94720  0.62660  1.0000
  C   C211      1.0  0.84830  0.44720  0.12660  1.0000
  C   C212      1.0  0.15170  0.55280  0.62660  1.0000
  C   C213      1.0  0.29850  0.04120  0.15880  1.0000
  C   C214      1.0  0.70150  0.95880  0.65880  1.0000
  C   C215      1.0  0.79850  0.45880  0.15880  1.0000
  C   C216      1.0  0.20150  0.54120  0.65880  1.0000
  H   H121      1.0  0.26692  0.04555  0.13630  1.0000
  H   H122      1.0  0.73308  0.95445  0.63630  1.0000
  H   H123      1.0  0.76692  0.45445  0.13630  1.0000
  H   H124      1.0  0.23308  0.54555  0.63630  1.0000
  C   C217      1.0  0.29170  0.02430  0.21920  1.0000
  C   C218      1.0  0.70830  0.97570  0.71920  1.0000
  C   C219      1.0  0.79170  0.47570  0.21920  1.0000
  C   C220      1.0  0.20830  0.52430  0.71920  1.0000
  H   H125      1.0  0.25702  0.01223  0.23343  1.0000
  H   H126      1.0  0.74298  0.98777  0.73343  1.0000
  H   H127      1.0  0.75702  0.48777  0.23343  1.0000
  H   H128      1.0  0.24298  0.51223  0.73343  1.0000
  C   C221      1.0  0.36240  0.05650  0.07030  1.0000
  C   C222      1.0  0.63760  0.94350  0.57030  1.0000
  C   C223      1.0  0.86240  0.44350  0.07030  1.0000
  C   C224      1.0  0.13760  0.55650  0.57030  1.0000
