data_image0
_chemical_formula_structural       MnS2O10N2C2H2C2H2C4H2C2H6
_chemical_formula_sum              "Mn1 S2 O10 N2 C10 H12"
_cell_length_a       6.9619
_cell_length_b       9.3723
_cell_length_c       9.9791
_cell_angle_alpha    74.9
_cell_angle_beta     89.418
_cell_angle_gamma    78.241

_space_group_name_H-M_alt    "P 1"
_space_group_IT_number       1

loop_
  _space_group_symop_operation_xyz
  'x, y, z'

loop_
  _atom_site_type_symbol
  _atom_site_label
  _atom_site_symmetry_multiplicity
  _atom_site_fract_x
  _atom_site_fract_y
  _atom_site_fract_z
  _atom_site_occupancy
  Mn  Mn1       1.0  0.00000  0.00000  0.00000  1.0000
  S   S1        1.0  0.71399  0.84489  0.82931  1.0000
  S   S2        1.0  0.28601  0.15511  0.17069  1.0000
  O   O1        1.0  0.76010  0.91680  0.93698  1.0000
  O   O2        1.0  0.23990  0.08320  0.06302  1.0000
  O   O3        1.0  0.86780  0.84470  0.72830  1.0000
  O   O4        1.0  0.13220  0.15530  0.27170  1.0000
  O   O5        1.0  0.69940  0.68810  0.89620  1.0000
  O   O6        1.0  0.30060  0.31190  0.10380  1.0000
  O   O7        1.0  0.52300  0.92810  0.76120  1.0000
  O   O8        1.0  0.47700  0.07190  0.23880  1.0000
  O   O9        1.0  0.80880  0.14750  0.10973  1.0000
  O   O10       1.0  0.19120  0.85250  0.89027  1.0000
  N   N1        1.0  0.96920  0.20090  0.80040  1.0000
  N   N2        1.0  0.03080  0.79910  0.19960  1.0000
  C   C1        1.0  0.94580  0.34500  0.80650  1.0000
  C   C2        1.0  0.05420  0.65500  0.19350  1.0000
  H   H1        1.0  0.92260  0.36540  0.89230  1.0000
  H   H2        1.0  0.07740  0.63460  0.10770  1.0000
  C   C3        1.0  0.95410  0.46440  0.69300  1.0000
  C   C4        1.0  0.04590  0.53560  0.30700  1.0000
  H   H3        1.0  0.93470  0.56220  0.70310  1.0000
  H   H4        1.0  0.06530  0.43780  0.29690  1.0000
  C   C5        1.0  0.99180  0.43790  0.56270  1.0000
  C   C6        1.0  0.00820  0.56210  0.43730  1.0000
  C   C7        1.0  0.01150  0.28900  0.55580  1.0000
  C   C8        1.0  0.98850  0.71100  0.44420  1.0000
  H   H5        1.0  0.03360  0.26530  0.47130  1.0000
  H   H6        1.0  0.96640  0.73470  0.52870  1.0000
  C   C9        1.0  0.99840  0.17720  0.67400  1.0000
  C   C10       1.0  0.00160  0.82280  0.32600  1.0000
  H   H7        1.0  0.01040  0.07910  0.66590  1.0000
  H   H8        1.0  0.98960  0.92090  0.33410  1.0000
  H   H9        1.0  0.70700  0.12000  0.14600  1.0000
  H   H10       1.0  0.29300  0.88000  0.85400  1.0000
  H   H11       1.0  0.88000  0.16200  0.17100  1.0000
  H   H12       1.0  0.12000  0.83800  0.82900  1.0000
