data_image0
_chemical_formula_structural       Eu4O28P4C12H4C8H4C8H4C4H8C4
_chemical_formula_sum              "Eu4 O28 P4 C36 H20"
_cell_length_a       10.0047
_cell_length_b       15.2756
_cell_length_c       9.30907
_cell_angle_alpha    90
_cell_angle_beta     90.0894
_cell_angle_gamma    90

_space_group_name_H-M_alt    "P 1"
_space_group_IT_number       1

loop_
  _space_group_symop_operation_xyz
  'x, y, z'

loop_
  _atom_site_type_symbol
  _atom_site_label
  _atom_site_symmetry_multiplicity
  _atom_site_fract_x
  _atom_site_fract_y
  _atom_site_fract_z
  _atom_site_occupancy
  Eu  Eu1       1.0  0.09390  0.66302  0.50645  1.0000
  Eu  Eu2       1.0  0.90610  0.16302  0.99355  1.0000
  Eu  Eu3       1.0  0.90610  0.33698  0.49355  1.0000
  Eu  Eu4       1.0  0.09390  0.83698  0.00645  1.0000
  O   O1        1.0  0.94808  0.64209  0.70377  1.0000
  O   O2        1.0  0.05192  0.14209  0.79623  1.0000
  O   O3        1.0  0.05192  0.35791  0.29623  1.0000
  O   O4        1.0  0.94808  0.85791  0.20377  1.0000
  O   O5        1.0  0.99273  0.72042  0.89890  1.0000
  O   O6        1.0  0.00727  0.22042  0.60110  1.0000
  O   O7        1.0  0.00727  0.27958  0.10110  1.0000
  O   O8        1.0  0.99273  0.77958  0.39890  1.0000
  O   O9        1.0  0.93832  0.58461  0.37561  1.0000
  O   O10       1.0  0.06168  0.08461  0.12439  1.0000
  O   O11       1.0  0.06168  0.41539  0.62439  1.0000
  O   O12       1.0  0.93832  0.91539  0.87561  1.0000
  O   O13       1.0  0.81621  0.46433  0.39811  1.0000
  O   O14       1.0  0.18379  0.96433  0.10189  1.0000
  O   O15       1.0  0.18379  0.53567  0.60189  1.0000
  O   O16       1.0  0.81621  0.03567  0.89811  1.0000
  O   O17       1.0  0.77619  0.25911  0.87855  1.0000
  O   O18       1.0  0.22381  0.75911  0.62145  1.0000
  O   O19       1.0  0.22381  0.74089  0.12145  1.0000
  O   O20       1.0  0.77619  0.24089  0.37855  1.0000
  O   O21       1.0  0.74829  0.35557  0.65994  1.0000
  O   O22       1.0  0.25171  0.85557  0.84006  1.0000
  O   O23       1.0  0.25171  0.64443  0.34006  1.0000
  O   O24       1.0  0.74829  0.14443  0.15994  1.0000
  O   O25       1.0  0.55674  0.26224  0.74505  1.0000
  O   O26       1.0  0.44326  0.76224  0.75495  1.0000
  O   O27       1.0  0.44326  0.73776  0.25495  1.0000
  O   O28       1.0  0.55674  0.23776  0.24505  1.0000
  P   P1        1.0  0.68108  0.31377  0.78873  1.0000
  P   P2        1.0  0.31892  0.81377  0.71127  1.0000
  P   P3        1.0  0.31892  0.68623  0.21127  1.0000
  P   P4        1.0  0.68108  0.18623  0.28873  1.0000
  C   C1        1.0  0.94478  0.65426  0.83753  1.0000
  C   C2        1.0  0.05522  0.15426  0.66247  1.0000
  C   C3        1.0  0.05522  0.34574  0.16247  1.0000
  C   C4        1.0  0.94478  0.84574  0.33753  1.0000
  C   C5        1.0  0.87758  0.58711  0.93042  1.0000
  C   C6        1.0  0.12242  0.08711  0.56958  1.0000
  C   C7        1.0  0.12242  0.41289  0.06958  1.0000
  C   C8        1.0  0.87758  0.91289  0.43042  1.0000
  C   C9        1.0  0.90073  0.58833  0.07882  1.0000
  C   C10       1.0  0.09927  0.08833  0.42118  1.0000
  C   C11       1.0  0.09927  0.41167  0.92118  1.0000
  C   C12       1.0  0.90073  0.91167  0.57882  1.0000
  H   H1        1.0  0.95870  0.63090  0.11960  1.0000
  H   H2        1.0  0.04130  0.13090  0.38040  1.0000
  H   H3        1.0  0.04130  0.36910  0.88040  1.0000
  H   H4        1.0  0.95870  0.86910  0.61960  1.0000
  C   C13       1.0  0.83829  0.52686  0.16598  1.0000
  C   C14       1.0  0.16171  0.02686  0.33402  1.0000
  C   C15       1.0  0.16171  0.47314  0.83402  1.0000
  C   C16       1.0  0.83829  0.97314  0.66598  1.0000
  C   C17       1.0  0.74981  0.46607  0.10644  1.0000
  C   C18       1.0  0.25019  0.96607  0.39356  1.0000
  C   C19       1.0  0.25019  0.53393  0.89356  1.0000
  C   C20       1.0  0.74981  0.03393  0.60644  1.0000
  H   H5        1.0  0.70730  0.42450  0.16690  1.0000
  H   H6        1.0  0.29270  0.92450  0.33310  1.0000
  H   H7        1.0  0.29270  0.57550  0.83310  1.0000
  H   H8        1.0  0.70730  0.07550  0.66690  1.0000
  C   C21       1.0  0.72301  0.46561  0.95917  1.0000
  C   C22       1.0  0.27699  0.96561  0.54083  1.0000
  C   C23       1.0  0.27699  0.53439  0.04083  1.0000
  C   C24       1.0  0.72301  0.03439  0.45917  1.0000
  C   C25       1.0  0.79056  0.52546  0.87107  1.0000
  C   C26       1.0  0.20944  0.02546  0.62893  1.0000
  C   C27       1.0  0.20944  0.47454  0.12893  1.0000
  C   C28       1.0  0.79056  0.97454  0.37107  1.0000
  H   H9        1.0  0.77700  0.52400  0.77010  1.0000
  H   H10       1.0  0.22300  0.02400  0.72990  1.0000
  H   H11       1.0  0.22300  0.47600  0.22990  1.0000
  H   H12       1.0  0.77700  0.97600  0.27010  1.0000
  C   C29       1.0  0.61992  0.40316  0.89956  1.0000
  C   C30       1.0  0.38008  0.90316  0.60044  1.0000
  C   C31       1.0  0.38008  0.59684  0.10044  1.0000
  C   C32       1.0  0.61992  0.09684  0.39956  1.0000
  H   H13       1.0  0.55530  0.43750  0.84190  1.0000
  H   H14       1.0  0.44470  0.93750  0.65810  1.0000
  H   H15       1.0  0.44470  0.56250  0.15810  1.0000
  H   H16       1.0  0.55530  0.06250  0.34190  1.0000
  H   H17       1.0  0.57020  0.37760  0.98130  1.0000
  H   H18       1.0  0.42980  0.87760  0.51870  1.0000
  H   H19       1.0  0.42980  0.62240  0.01870  1.0000
  H   H20       1.0  0.57020  0.12240  0.48130  1.0000
  C   C33       1.0  0.86685  0.52520  0.32437  1.0000
  C   C34       1.0  0.13315  0.02520  0.17563  1.0000
  C   C35       1.0  0.13315  0.47480  0.67563  1.0000
  C   C36       1.0  0.86685  0.97480  0.82437  1.0000
