data_image0
_chemical_formula_structural       Eu4O28P4C12H4C8H4C8H4C4H8C4
_chemical_formula_sum              "Eu4 O28 P4 C36 H20"
_cell_length_a       10.0473
_cell_length_b       15.2715
_cell_length_c       9.30011
_cell_angle_alpha    90
_cell_angle_beta     90.393
_cell_angle_gamma    90

_space_group_name_H-M_alt    "P 1"
_space_group_IT_number       1

loop_
  _space_group_symop_operation_xyz
  'x, y, z'

loop_
  _atom_site_type_symbol
  _atom_site_label
  _atom_site_symmetry_multiplicity
  _atom_site_fract_x
  _atom_site_fract_y
  _atom_site_fract_z
  _atom_site_occupancy
  Eu  Eu1       1.0  0.09396  0.66302  0.50724  1.0000
  Eu  Eu2       1.0  0.90604  0.16302  0.99276  1.0000
  Eu  Eu3       1.0  0.90604  0.33698  0.49276  1.0000
  Eu  Eu4       1.0  0.09396  0.83698  0.00724  1.0000
  O   O1        1.0  0.94886  0.64244  0.70418  1.0000
  O   O2        1.0  0.05114  0.14244  0.79582  1.0000
  O   O3        1.0  0.05114  0.35756  0.29582  1.0000
  O   O4        1.0  0.94886  0.85756  0.20418  1.0000
  O   O5        1.0  0.99297  0.72061  0.89919  1.0000
  O   O6        1.0  0.00703  0.22061  0.60081  1.0000
  O   O7        1.0  0.00703  0.27939  0.10081  1.0000
  O   O8        1.0  0.99297  0.77939  0.39919  1.0000
  O   O9        1.0  0.93794  0.58507  0.37592  1.0000
  O   O10       1.0  0.06206  0.08507  0.12408  1.0000
  O   O11       1.0  0.06206  0.41493  0.62408  1.0000
  O   O12       1.0  0.93794  0.91493  0.87592  1.0000
  O   O13       1.0  0.81731  0.46478  0.39717  1.0000
  O   O14       1.0  0.18269  0.96478  0.10283  1.0000
  O   O15       1.0  0.18269  0.53522  0.60283  1.0000
  O   O16       1.0  0.81731  0.03522  0.89717  1.0000
  O   O17       1.0  0.77620  0.25892  0.87720  1.0000
  O   O18       1.0  0.22380  0.75892  0.62280  1.0000
  O   O19       1.0  0.22380  0.74108  0.12280  1.0000
  O   O20       1.0  0.77620  0.24108  0.37720  1.0000
  O   O21       1.0  0.74954  0.35539  0.65890  1.0000
  O   O22       1.0  0.25046  0.85539  0.84110  1.0000
  O   O23       1.0  0.25046  0.64461  0.34110  1.0000
  O   O24       1.0  0.74954  0.14461  0.15890  1.0000
  O   O25       1.0  0.55790  0.26305  0.74268  1.0000
  O   O26       1.0  0.44210  0.76305  0.75732  1.0000
  O   O27       1.0  0.44210  0.73695  0.25732  1.0000
  O   O28       1.0  0.55790  0.23695  0.24268  1.0000
  P   P1        1.0  0.68232  0.31384  0.78704  1.0000
  P   P2        1.0  0.31768  0.81384  0.71296  1.0000
  P   P3        1.0  0.31768  0.68616  0.21296  1.0000
  P   P4        1.0  0.68232  0.18616  0.28704  1.0000
  C   C1        1.0  0.94524  0.65471  0.83734  1.0000
  C   C2        1.0  0.05476  0.15471  0.66266  1.0000
  C   C3        1.0  0.05476  0.34529  0.16266  1.0000
  C   C4        1.0  0.94524  0.84529  0.33734  1.0000
  C   C5        1.0  0.87861  0.58754  0.93018  1.0000
  C   C6        1.0  0.12139  0.08754  0.56982  1.0000
  C   C7        1.0  0.12139  0.41246  0.06982  1.0000
  C   C8        1.0  0.87861  0.91246  0.43018  1.0000
  C   C9        1.0  0.90106  0.58883  0.07860  1.0000
  C   C10       1.0  0.09894  0.08883  0.42140  1.0000
  C   C11       1.0  0.09894  0.41117  0.92140  1.0000
  C   C12       1.0  0.90106  0.91117  0.57860  1.0000
  H   H1        1.0  0.95730  0.63060  0.11900  1.0000
  H   H2        1.0  0.04270  0.13060  0.38100  1.0000
  H   H3        1.0  0.04270  0.36940  0.88100  1.0000
  H   H4        1.0  0.95730  0.86940  0.61900  1.0000
  C   C13       1.0  0.83906  0.52747  0.16542  1.0000
  C   C14       1.0  0.16094  0.02747  0.33458  1.0000
  C   C15       1.0  0.16094  0.47253  0.83458  1.0000
  C   C16       1.0  0.83906  0.97253  0.66542  1.0000
  C   C17       1.0  0.75134  0.46645  0.10509  1.0000
  C   C18       1.0  0.24866  0.96645  0.39491  1.0000
  C   C19       1.0  0.24866  0.53355  0.89491  1.0000
  C   C20       1.0  0.75134  0.03355  0.60509  1.0000
  H   H5        1.0  0.71000  0.42560  0.16410  1.0000
  H   H6        1.0  0.29000  0.92560  0.33590  1.0000
  H   H7        1.0  0.29000  0.57440  0.83590  1.0000
  H   H8        1.0  0.71000  0.07440  0.66410  1.0000
  C   C21       1.0  0.72485  0.46587  0.95776  1.0000
  C   C22       1.0  0.27515  0.96587  0.54224  1.0000
  C   C23       1.0  0.27515  0.53413  0.04224  1.0000
  C   C24       1.0  0.72485  0.03413  0.45776  1.0000
  C   C25       1.0  0.79187  0.52571  0.87048  1.0000
  C   C26       1.0  0.20813  0.02571  0.62952  1.0000
  C   C27       1.0  0.20813  0.47429  0.12952  1.0000
  C   C28       1.0  0.79187  0.97429  0.37048  1.0000
  H   H9        1.0  0.77850  0.52430  0.77150  1.0000
  H   H10       1.0  0.22150  0.02430  0.72850  1.0000
  H   H11       1.0  0.22150  0.47570  0.22850  1.0000
  H   H12       1.0  0.77850  0.97570  0.27150  1.0000
  C   C29       1.0  0.62213  0.40346  0.89760  1.0000
  C   C30       1.0  0.37787  0.90346  0.60240  1.0000
  C   C31       1.0  0.37787  0.59654  0.10240  1.0000
  C   C32       1.0  0.62213  0.09654  0.39760  1.0000
  H   H13       1.0  0.55910  0.43720  0.84070  1.0000
  H   H14       1.0  0.44090  0.93720  0.65930  1.0000
  H   H15       1.0  0.44090  0.56280  0.15930  1.0000
  H   H16       1.0  0.55910  0.06280  0.34070  1.0000
  H   H17       1.0  0.57360  0.37850  0.97760  1.0000
  H   H18       1.0  0.42640  0.87850  0.52240  1.0000
  H   H19       1.0  0.42640  0.62150  0.02240  1.0000
  H   H20       1.0  0.57360  0.12150  0.47760  1.0000
  C   C33       1.0  0.86736  0.52579  0.32405  1.0000
  C   C34       1.0  0.13264  0.02579  0.17595  1.0000
  C   C35       1.0  0.13264  0.47421  0.67595  1.0000
  C   C36       1.0  0.86736  0.97421  0.82405  1.0000
