data_image0
_chemical_formula_structural       Eu4O28P4C12H4C8H4C8H4C4H8C4
_chemical_formula_sum              "Eu4 O28 P4 C36 H20"
_cell_length_a       10.0916
_cell_length_b       15.2821
_cell_length_c       9.3012
_cell_angle_alpha    90
_cell_angle_beta     90.688
_cell_angle_gamma    90

_space_group_name_H-M_alt    "P 1"
_space_group_IT_number       1

loop_
  _space_group_symop_operation_xyz
  'x, y, z'

loop_
  _atom_site_type_symbol
  _atom_site_label
  _atom_site_symmetry_multiplicity
  _atom_site_fract_x
  _atom_site_fract_y
  _atom_site_fract_z
  _atom_site_occupancy
  Eu  Eu1       1.0  0.09369  0.66307  0.50795  1.0000
  Eu  Eu2       1.0  0.90631  0.16307  0.99205  1.0000
  Eu  Eu3       1.0  0.90631  0.33693  0.49205  1.0000
  Eu  Eu4       1.0  0.09369  0.83693  0.00795  1.0000
  O   O1        1.0  0.94904  0.64280  0.70472  1.0000
  O   O2        1.0  0.05096  0.14280  0.79528  1.0000
  O   O3        1.0  0.05096  0.35720  0.29528  1.0000
  O   O4        1.0  0.94904  0.85720  0.20472  1.0000
  O   O5        1.0  0.99260  0.72055  0.89974  1.0000
  O   O6        1.0  0.00740  0.22055  0.60026  1.0000
  O   O7        1.0  0.00740  0.27945  0.10026  1.0000
  O   O8        1.0  0.99260  0.77945  0.39974  1.0000
  O   O9        1.0  0.93745  0.58561  0.37619  1.0000
  O   O10       1.0  0.06255  0.08561  0.12381  1.0000
  O   O11       1.0  0.06255  0.41439  0.62381  1.0000
  O   O12       1.0  0.93745  0.91439  0.87619  1.0000
  O   O13       1.0  0.81859  0.46509  0.39686  1.0000
  O   O14       1.0  0.18141  0.96509  0.10314  1.0000
  O   O15       1.0  0.18141  0.53491  0.60314  1.0000
  O   O16       1.0  0.81859  0.03491  0.89686  1.0000
  O   O17       1.0  0.77640  0.25857  0.87590  1.0000
  O   O18       1.0  0.22360  0.75857  0.62410  1.0000
  O   O19       1.0  0.22360  0.74143  0.12410  1.0000
  O   O20       1.0  0.77640  0.24143  0.37590  1.0000
  O   O21       1.0  0.75135  0.35505  0.65818  1.0000
  O   O22       1.0  0.24865  0.85505  0.84182  1.0000
  O   O23       1.0  0.24865  0.64495  0.34182  1.0000
  O   O24       1.0  0.75135  0.14495  0.15818  1.0000
  O   O25       1.0  0.55956  0.26400  0.74068  1.0000
  O   O26       1.0  0.44044  0.76400  0.75932  1.0000
  O   O27       1.0  0.44044  0.73600  0.25932  1.0000
  O   O28       1.0  0.55956  0.23600  0.24068  1.0000
  P   P1        1.0  0.68379  0.31397  0.78562  1.0000
  P   P2        1.0  0.31621  0.81397  0.71438  1.0000
  P   P3        1.0  0.31621  0.68603  0.21438  1.0000
  P   P4        1.0  0.68379  0.18603  0.28562  1.0000
  C   C1        1.0  0.94552  0.65490  0.83779  1.0000
  C   C2        1.0  0.05448  0.15490  0.66221  1.0000
  C   C3        1.0  0.05448  0.34510  0.16221  1.0000
  C   C4        1.0  0.94552  0.84510  0.33779  1.0000
  C   C5        1.0  0.87919  0.58775  0.93016  1.0000
  C   C6        1.0  0.12081  0.08775  0.56984  1.0000
  C   C7        1.0  0.12081  0.41225  0.06984  1.0000
  C   C8        1.0  0.87919  0.91225  0.43016  1.0000
  C   C9        1.0  0.90156  0.58915  0.07829  1.0000
  C   C10       1.0  0.09844  0.08915  0.42171  1.0000
  C   C11       1.0  0.09844  0.41085  0.92171  1.0000
  C   C12       1.0  0.90156  0.91085  0.57829  1.0000
  H   H1        1.0  0.95760  0.63100  0.11880  1.0000
  H   H2        1.0  0.04240  0.13100  0.38120  1.0000
  H   H3        1.0  0.04240  0.36900  0.88120  1.0000
  H   H4        1.0  0.95760  0.86900  0.61880  1.0000
  C   C13       1.0  0.83979  0.52784  0.16534  1.0000
  C   C14       1.0  0.16021  0.02784  0.33466  1.0000
  C   C15       1.0  0.16021  0.47216  0.83466  1.0000
  C   C16       1.0  0.83979  0.97216  0.66534  1.0000
  C   C17       1.0  0.75284  0.46687  0.10440  1.0000
  C   C18       1.0  0.24716  0.96687  0.39560  1.0000
  C   C19       1.0  0.24716  0.53313  0.89560  1.0000
  C   C20       1.0  0.75284  0.03313  0.60440  1.0000
  H   H5        1.0  0.71180  0.42610  0.16320  1.0000
  H   H6        1.0  0.28820  0.92610  0.33680  1.0000
  H   H7        1.0  0.28820  0.57390  0.83680  1.0000
  H   H8        1.0  0.71180  0.07390  0.66320  1.0000
  C   C21       1.0  0.72647  0.46606  0.95683  1.0000
  C   C22       1.0  0.27353  0.96606  0.54317  1.0000
  C   C23       1.0  0.27353  0.53394  0.04317  1.0000
  C   C24       1.0  0.72647  0.03394  0.45683  1.0000
  C   C25       1.0  0.79377  0.52597  0.86990  1.0000
  C   C26       1.0  0.20623  0.02597  0.63010  1.0000
  C   C27       1.0  0.20623  0.47403  0.13010  1.0000
  C   C28       1.0  0.79377  0.97403  0.36990  1.0000
  H   H9        1.0  0.78120  0.52440  0.77070  1.0000
  H   H10       1.0  0.21880  0.02440  0.72930  1.0000
  H   H11       1.0  0.21880  0.47560  0.22930  1.0000
  H   H12       1.0  0.78120  0.97560  0.27070  1.0000
  C   C29       1.0  0.62470  0.40367  0.89600  1.0000
  C   C30       1.0  0.37530  0.90367  0.60400  1.0000
  C   C31       1.0  0.37530  0.59633  0.10400  1.0000
  C   C32       1.0  0.62470  0.09633  0.39600  1.0000
  H   H13       1.0  0.56190  0.43740  0.83890  1.0000
  H   H14       1.0  0.43810  0.93740  0.66110  1.0000
  H   H15       1.0  0.43810  0.56260  0.16110  1.0000
  H   H16       1.0  0.56190  0.06260  0.33890  1.0000
  H   H17       1.0  0.57640  0.37880  0.97570  1.0000
  H   H18       1.0  0.42360  0.87880  0.52430  1.0000
  H   H19       1.0  0.42360  0.62120  0.02430  1.0000
  H   H20       1.0  0.57640  0.12120  0.47570  1.0000
  C   C33       1.0  0.86808  0.52603  0.32397  1.0000
  C   C34       1.0  0.13192  0.02603  0.17603  1.0000
  C   C35       1.0  0.13192  0.47397  0.67603  1.0000
  C   C36       1.0  0.86808  0.97397  0.82397  1.0000
