data_image0
_chemical_formula_structural       Eu4O28P4C12H4C8H4C8H4C4H8C4
_chemical_formula_sum              "Eu4 O28 P4 C36 H20"
_cell_length_a       10.0517
_cell_length_b       15.2693
_cell_length_c       9.30469
_cell_angle_alpha    90
_cell_angle_beta     90.4838
_cell_angle_gamma    90

_space_group_name_H-M_alt    "P 1"
_space_group_IT_number       1

loop_
  _space_group_symop_operation_xyz
  'x, y, z'

loop_
  _atom_site_type_symbol
  _atom_site_label
  _atom_site_symmetry_multiplicity
  _atom_site_fract_x
  _atom_site_fract_y
  _atom_site_fract_z
  _atom_site_occupancy
  Eu  Eu1       1.0  0.09432  0.66296  0.50744  1.0000
  Eu  Eu2       1.0  0.90568  0.16296  0.99256  1.0000
  Eu  Eu3       1.0  0.90568  0.33704  0.49256  1.0000
  Eu  Eu4       1.0  0.09432  0.83704  0.00744  1.0000
  O   O1        1.0  0.94936  0.64230  0.70416  1.0000
  O   O2        1.0  0.05064  0.14230  0.79584  1.0000
  O   O3        1.0  0.05064  0.35770  0.29584  1.0000
  O   O4        1.0  0.94936  0.85770  0.20416  1.0000
  O   O5        1.0  0.99361  0.72043  0.89932  1.0000
  O   O6        1.0  0.00639  0.22043  0.60068  1.0000
  O   O7        1.0  0.00639  0.27957  0.10068  1.0000
  O   O8        1.0  0.99361  0.77957  0.39932  1.0000
  O   O9        1.0  0.93802  0.58532  0.37579  1.0000
  O   O10       1.0  0.06198  0.08532  0.12421  1.0000
  O   O11       1.0  0.06198  0.41468  0.62421  1.0000
  O   O12       1.0  0.93802  0.91468  0.87579  1.0000
  O   O13       1.0  0.81722  0.46506  0.39725  1.0000
  O   O14       1.0  0.18278  0.96506  0.10275  1.0000
  O   O15       1.0  0.18278  0.53494  0.60275  1.0000
  O   O16       1.0  0.81722  0.03494  0.89725  1.0000
  O   O17       1.0  0.77594  0.25892  0.87676  1.0000
  O   O18       1.0  0.22406  0.75892  0.62324  1.0000
  O   O19       1.0  0.22406  0.74108  0.12324  1.0000
  O   O20       1.0  0.77594  0.24108  0.37676  1.0000
  O   O21       1.0  0.74963  0.35565  0.65851  1.0000
  O   O22       1.0  0.25037  0.85565  0.84149  1.0000
  O   O23       1.0  0.25037  0.64435  0.34149  1.0000
  O   O24       1.0  0.74963  0.14435  0.15851  1.0000
  O   O25       1.0  0.55757  0.26351  0.74202  1.0000
  O   O26       1.0  0.44243  0.76351  0.75798  1.0000
  O   O27       1.0  0.44243  0.73649  0.25798  1.0000
  O   O28       1.0  0.55757  0.23649  0.24202  1.0000
  P   P1        1.0  0.68223  0.31411  0.78664  1.0000
  P   P2        1.0  0.31777  0.81411  0.71336  1.0000
  P   P3        1.0  0.31777  0.68589  0.21336  1.0000
  P   P4        1.0  0.68223  0.18589  0.28664  1.0000
  C   C1        1.0  0.94595  0.65454  0.83734  1.0000
  C   C2        1.0  0.05405  0.15454  0.66266  1.0000
  C   C3        1.0  0.05405  0.34546  0.16266  1.0000
  C   C4        1.0  0.94595  0.84546  0.33734  1.0000
  C   C5        1.0  0.87901  0.58751  0.93010  1.0000
  C   C6        1.0  0.12099  0.08751  0.56990  1.0000
  C   C7        1.0  0.12099  0.41249  0.06990  1.0000
  C   C8        1.0  0.87901  0.91249  0.43010  1.0000
  C   C9        1.0  0.90167  0.58888  0.07848  1.0000
  C   C10       1.0  0.09833  0.08888  0.42152  1.0000
  C   C11       1.0  0.09833  0.41112  0.92152  1.0000
  C   C12       1.0  0.90167  0.91112  0.57848  1.0000
  H   H1        1.0  0.95810  0.63060  0.11880  1.0000
  H   H2        1.0  0.04190  0.13060  0.38120  1.0000
  H   H3        1.0  0.04190  0.36940  0.88120  1.0000
  H   H4        1.0  0.95810  0.86940  0.61880  1.0000
  C   C13       1.0  0.83944  0.52763  0.16535  1.0000
  C   C14       1.0  0.16056  0.02763  0.33465  1.0000
  C   C15       1.0  0.16056  0.47237  0.83465  1.0000
  C   C16       1.0  0.83944  0.97237  0.66535  1.0000
  C   C17       1.0  0.75165  0.46673  0.10488  1.0000
  C   C18       1.0  0.24835  0.96673  0.39512  1.0000
  C   C19       1.0  0.24835  0.53327  0.89512  1.0000
  C   C20       1.0  0.75165  0.03327  0.60488  1.0000
  H   H5        1.0  0.71030  0.42600  0.16380  1.0000
  H   H6        1.0  0.28970  0.92600  0.33620  1.0000
  H   H7        1.0  0.28970  0.57400  0.83620  1.0000
  H   H8        1.0  0.71030  0.07400  0.66380  1.0000
  C   C21       1.0  0.72512  0.46615  0.95751  1.0000
  C   C22       1.0  0.27488  0.96615  0.54249  1.0000
  C   C23       1.0  0.27488  0.53385  0.04249  1.0000
  C   C24       1.0  0.72512  0.03385  0.45751  1.0000
  C   C25       1.0  0.79261  0.52579  0.87012  1.0000
  C   C26       1.0  0.20739  0.02579  0.62988  1.0000
  C   C27       1.0  0.20739  0.47421  0.12988  1.0000
  C   C28       1.0  0.79261  0.97421  0.37012  1.0000
  H   H9        1.0  0.77970  0.52430  0.77110  1.0000
  H   H10       1.0  0.22030  0.02430  0.72890  1.0000
  H   H11       1.0  0.22030  0.47570  0.22890  1.0000
  H   H12       1.0  0.77970  0.97570  0.27110  1.0000
  C   C29       1.0  0.62262  0.40377  0.89720  1.0000
  C   C30       1.0  0.37738  0.90377  0.60280  1.0000
  C   C31       1.0  0.37738  0.59623  0.10280  1.0000
  C   C32       1.0  0.62262  0.09623  0.39720  1.0000
  H   H13       1.0  0.55960  0.43750  0.84040  1.0000
  H   H14       1.0  0.44040  0.93750  0.65960  1.0000
  H   H15       1.0  0.44040  0.56250  0.15960  1.0000
  H   H16       1.0  0.55960  0.06250  0.34040  1.0000
  H   H17       1.0  0.57420  0.37890  0.97710  1.0000
  H   H18       1.0  0.42580  0.87890  0.52290  1.0000
  H   H19       1.0  0.42580  0.62110  0.02290  1.0000
  H   H20       1.0  0.57420  0.12110  0.47710  1.0000
  C   C33       1.0  0.86747  0.52591  0.32394  1.0000
  C   C34       1.0  0.13253  0.02591  0.17606  1.0000
  C   C35       1.0  0.13253  0.47409  0.67606  1.0000
  C   C36       1.0  0.86747  0.97409  0.82394  1.0000
