data_image0
_chemical_formula_structural       Eu4O28P4C12H4C8H4C8H4C4H8C4
_chemical_formula_sum              "Eu4 O28 P4 C36 H20"
_cell_length_a       10.0093
_cell_length_b       15.2749
_cell_length_c       9.31443
_cell_angle_alpha    90
_cell_angle_beta     90.1892
_cell_angle_gamma    90

_space_group_name_H-M_alt    "P 1"
_space_group_IT_number       1

loop_
  _space_group_symop_operation_xyz
  'x, y, z'

loop_
  _atom_site_type_symbol
  _atom_site_label
  _atom_site_symmetry_multiplicity
  _atom_site_fract_x
  _atom_site_fract_y
  _atom_site_fract_z
  _atom_site_occupancy
  Eu  Eu1       1.0  0.09417  0.66297  0.50664  1.0000
  Eu  Eu2       1.0  0.90583  0.16297  0.99336  1.0000
  Eu  Eu3       1.0  0.90583  0.33703  0.49336  1.0000
  Eu  Eu4       1.0  0.09417  0.83703  0.00664  1.0000
  O   O1        1.0  0.94856  0.64182  0.70385  1.0000
  O   O2        1.0  0.05144  0.14182  0.79615  1.0000
  O   O3        1.0  0.05144  0.35818  0.29615  1.0000
  O   O4        1.0  0.94856  0.85818  0.20385  1.0000
  O   O5        1.0  0.99317  0.72037  0.89895  1.0000
  O   O6        1.0  0.00683  0.22037  0.60105  1.0000
  O   O7        1.0  0.00683  0.27963  0.10105  1.0000
  O   O8        1.0  0.99317  0.77963  0.39895  1.0000
  O   O9        1.0  0.93814  0.58494  0.37562  1.0000
  O   O10       1.0  0.06186  0.08494  0.12438  1.0000
  O   O11       1.0  0.06186  0.41506  0.62438  1.0000
  O   O12       1.0  0.93814  0.91506  0.87562  1.0000
  O   O13       1.0  0.81607  0.46452  0.39773  1.0000
  O   O14       1.0  0.18393  0.96452  0.10227  1.0000
  O   O15       1.0  0.18393  0.53548  0.60227  1.0000
  O   O16       1.0  0.81607  0.03548  0.89773  1.0000
  O   O17       1.0  0.77614  0.25920  0.87807  1.0000
  O   O18       1.0  0.22386  0.75920  0.62193  1.0000
  O   O19       1.0  0.22386  0.74080  0.12193  1.0000
  O   O20       1.0  0.77614  0.24080  0.37807  1.0000
  O   O21       1.0  0.74835  0.35584  0.65959  1.0000
  O   O22       1.0  0.25165  0.85584  0.84041  1.0000
  O   O23       1.0  0.25165  0.64416  0.34041  1.0000
  O   O24       1.0  0.74835  0.14416  0.15959  1.0000
  O   O25       1.0  0.55651  0.26258  0.74435  1.0000
  O   O26       1.0  0.44349  0.76258  0.75565  1.0000
  O   O27       1.0  0.44349  0.73742  0.25565  1.0000
  O   O28       1.0  0.55651  0.23742  0.24435  1.0000
  P   P1        1.0  0.68102  0.31399  0.78829  1.0000
  P   P2        1.0  0.31898  0.81399  0.71171  1.0000
  P   P3        1.0  0.31898  0.68601  0.21171  1.0000
  P   P4        1.0  0.68102  0.18601  0.28829  1.0000
  C   C1        1.0  0.94548  0.65421  0.83734  1.0000
  C   C2        1.0  0.05452  0.15421  0.66266  1.0000
  C   C3        1.0  0.05452  0.34579  0.16266  1.0000
  C   C4        1.0  0.94548  0.84579  0.33734  1.0000
  C   C5        1.0  0.87805  0.58709  0.93040  1.0000
  C   C6        1.0  0.12195  0.08709  0.56960  1.0000
  C   C7        1.0  0.12195  0.41291  0.06960  1.0000
  C   C8        1.0  0.87805  0.91291  0.43040  1.0000
  C   C9        1.0  0.90123  0.58841  0.07859  1.0000
  C   C10       1.0  0.09877  0.08841  0.42141  1.0000
  C   C11       1.0  0.09877  0.41159  0.92141  1.0000
  C   C12       1.0  0.90123  0.91159  0.57859  1.0000
  H   H1        1.0  0.95930  0.63090  0.11940  1.0000
  H   H2        1.0  0.04070  0.13090  0.38060  1.0000
  H   H3        1.0  0.04070  0.36910  0.88060  1.0000
  H   H4        1.0  0.95930  0.86910  0.61940  1.0000
  C   C13       1.0  0.83856  0.52705  0.16584  1.0000
  C   C14       1.0  0.16144  0.02705  0.33416  1.0000
  C   C15       1.0  0.16144  0.47295  0.83416  1.0000
  C   C16       1.0  0.83856  0.97295  0.66584  1.0000
  C   C17       1.0  0.75005  0.46625  0.10605  1.0000
  C   C18       1.0  0.24995  0.96625  0.39395  1.0000
  C   C19       1.0  0.24995  0.53375  0.89395  1.0000
  C   C20       1.0  0.75005  0.03375  0.60605  1.0000
  H   H5        1.0  0.70760  0.42470  0.16640  1.0000
  H   H6        1.0  0.29240  0.92470  0.33360  1.0000
  H   H7        1.0  0.29240  0.57530  0.83360  1.0000
  H   H8        1.0  0.70760  0.07530  0.66640  1.0000
  C   C21       1.0  0.72318  0.46577  0.95884  1.0000
  C   C22       1.0  0.27682  0.96577  0.54116  1.0000
  C   C23       1.0  0.27682  0.53423  0.04116  1.0000
  C   C24       1.0  0.72318  0.03423  0.45884  1.0000
  C   C25       1.0  0.79093  0.52542  0.87085  1.0000
  C   C26       1.0  0.20907  0.02542  0.62915  1.0000
  C   C27       1.0  0.20907  0.47458  0.12915  1.0000
  C   C28       1.0  0.79093  0.97458  0.37085  1.0000
  H   H9        1.0  0.77750  0.52390  0.76990  1.0000
  H   H10       1.0  0.22250  0.02390  0.73010  1.0000
  H   H11       1.0  0.22250  0.47610  0.23010  1.0000
  H   H12       1.0  0.77750  0.97610  0.26990  1.0000
  C   C29       1.0  0.62020  0.40339  0.89911  1.0000
  C   C30       1.0  0.37980  0.90339  0.60089  1.0000
  C   C31       1.0  0.37980  0.59661  0.10089  1.0000
  C   C32       1.0  0.62020  0.09661  0.39911  1.0000
  H   H13       1.0  0.55560  0.43770  0.84150  1.0000
  H   H14       1.0  0.44440  0.93770  0.65850  1.0000
  H   H15       1.0  0.44440  0.56230  0.15850  1.0000
  H   H16       1.0  0.55560  0.06230  0.34150  1.0000
  H   H17       1.0  0.57060  0.37780  0.98080  1.0000
  H   H18       1.0  0.42940  0.87780  0.51920  1.0000
  H   H19       1.0  0.42940  0.62220  0.01920  1.0000
  H   H20       1.0  0.57060  0.12220  0.48080  1.0000
  C   C33       1.0  0.86684  0.52543  0.32410  1.0000
  C   C34       1.0  0.13316  0.02543  0.17590  1.0000
  C   C35       1.0  0.13316  0.47457  0.67590  1.0000
  C   C36       1.0  0.86684  0.97457  0.82410  1.0000
