data_image0
_chemical_formula_structural       Eu4O28P4C12H4C8H4C8H4C4H8C4
_chemical_formula_sum              "Eu4 O28 P4 C36 H20"
_cell_length_a       10.0915
_cell_length_b       15.2818
_cell_length_c       9.29222
_cell_angle_alpha    90
_cell_angle_beta     90.5617
_cell_angle_gamma    90

_space_group_name_H-M_alt    "P 1"
_space_group_IT_number       1

loop_
  _space_group_symop_operation_xyz
  'x, y, z'

loop_
  _atom_site_type_symbol
  _atom_site_label
  _atom_site_symmetry_multiplicity
  _atom_site_fract_x
  _atom_site_fract_y
  _atom_site_fract_z
  _atom_site_occupancy
  Eu  Eu1       1.0  0.09350  0.66311  0.50775  1.0000
  Eu  Eu2       1.0  0.90650  0.16311  0.99225  1.0000
  Eu  Eu3       1.0  0.90650  0.33689  0.49225  1.0000
  Eu  Eu4       1.0  0.09350  0.83689  0.00775  1.0000
  O   O1        1.0  0.94890  0.64310  0.70442  1.0000
  O   O2        1.0  0.05110  0.14310  0.79558  1.0000
  O   O3        1.0  0.05110  0.35690  0.29558  1.0000
  O   O4        1.0  0.94890  0.85690  0.20442  1.0000
  O   O5        1.0  0.99250  0.72066  0.89950  1.0000
  O   O6        1.0  0.00750  0.22066  0.60050  1.0000
  O   O7        1.0  0.00750  0.27934  0.10050  1.0000
  O   O8        1.0  0.99250  0.77934  0.39950  1.0000
  O   O9        1.0  0.93760  0.58538  0.37615  1.0000
  O   O10       1.0  0.06240  0.08538  0.12385  1.0000
  O   O11       1.0  0.06240  0.41462  0.62385  1.0000
  O   O12       1.0  0.93760  0.91462  0.87615  1.0000
  O   O13       1.0  0.81876  0.46497  0.39691  1.0000
  O   O14       1.0  0.18124  0.96497  0.10309  1.0000
  O   O15       1.0  0.18124  0.53503  0.60309  1.0000
  O   O16       1.0  0.81876  0.03503  0.89691  1.0000
  O   O17       1.0  0.77660  0.25871  0.87630  1.0000
  O   O18       1.0  0.22340  0.75871  0.62370  1.0000
  O   O19       1.0  0.22340  0.74129  0.12370  1.0000
  O   O20       1.0  0.77660  0.24129  0.37630  1.0000
  O   O21       1.0  0.75120  0.35525  0.65843  1.0000
  O   O22       1.0  0.24880  0.85525  0.84157  1.0000
  O   O23       1.0  0.24880  0.64475  0.34157  1.0000
  O   O24       1.0  0.75120  0.14475  0.15843  1.0000
  O   O25       1.0  0.55977  0.26363  0.74109  1.0000
  O   O26       1.0  0.44023  0.76363  0.75891  1.0000
  O   O27       1.0  0.44023  0.73637  0.25891  1.0000
  O   O28       1.0  0.55977  0.23637  0.24109  1.0000
  P   P1        1.0  0.68395  0.31382  0.78607  1.0000
  P   P2        1.0  0.31605  0.81382  0.71393  1.0000
  P   P3        1.0  0.31605  0.68618  0.21393  1.0000
  P   P4        1.0  0.68395  0.18618  0.28607  1.0000
  C   C1        1.0  0.94520  0.65506  0.83770  1.0000
  C   C2        1.0  0.05480  0.15506  0.66230  1.0000
  C   C3        1.0  0.05480  0.34494  0.16230  1.0000
  C   C4        1.0  0.94520  0.84494  0.33770  1.0000
  C   C5        1.0  0.87870  0.58779  0.93001  1.0000
  C   C6        1.0  0.12130  0.08779  0.56999  1.0000
  C   C7        1.0  0.12130  0.41221  0.06999  1.0000
  C   C8        1.0  0.87870  0.91221  0.43001  1.0000
  C   C9        1.0  0.90120  0.58918  0.07870  1.0000
  C   C10       1.0  0.09880  0.08918  0.42130  1.0000
  C   C11       1.0  0.09880  0.41082  0.92130  1.0000
  C   C12       1.0  0.90120  0.91082  0.57870  1.0000
  H   H1        1.0  0.95710  0.63100  0.11930  1.0000
  H   H2        1.0  0.04290  0.13100  0.38070  1.0000
  H   H3        1.0  0.04290  0.36900  0.88070  1.0000
  H   H4        1.0  0.95710  0.86900  0.61930  1.0000
  C   C13       1.0  0.83960  0.52786  0.16540  1.0000
  C   C14       1.0  0.16040  0.02786  0.33460  1.0000
  C   C15       1.0  0.16040  0.47214  0.83460  1.0000
  C   C16       1.0  0.83960  0.97214  0.66540  1.0000
  C   C17       1.0  0.75290  0.46677  0.10450  1.0000
  C   C18       1.0  0.24710  0.96677  0.39550  1.0000
  C   C19       1.0  0.24710  0.53323  0.89550  1.0000
  C   C20       1.0  0.75290  0.03323  0.60450  1.0000
  H   H5        1.0  0.71210  0.42580  0.16330  1.0000
  H   H6        1.0  0.28790  0.92580  0.33670  1.0000
  H   H7        1.0  0.28790  0.57420  0.83670  1.0000
  H   H8        1.0  0.71210  0.07420  0.66330  1.0000
  C   C21       1.0  0.72650  0.46605  0.95710  1.0000
  C   C22       1.0  0.27350  0.96605  0.54290  1.0000
  C   C23       1.0  0.27350  0.53395  0.04290  1.0000
  C   C24       1.0  0.72650  0.03395  0.45710  1.0000
  C   C25       1.0  0.79330  0.52591  0.86990  1.0000
  C   C26       1.0  0.20670  0.02591  0.63010  1.0000
  C   C27       1.0  0.20670  0.47409  0.13010  1.0000
  C   C28       1.0  0.79330  0.97409  0.36990  1.0000
  H   H9        1.0  0.78060  0.52430  0.77070  1.0000
  H   H10       1.0  0.21940  0.02430  0.72930  1.0000
  H   H11       1.0  0.21940  0.47570  0.22930  1.0000
  H   H12       1.0  0.78060  0.97570  0.27070  1.0000
  C   C29       1.0  0.62470  0.40358  0.89660  1.0000
  C   C30       1.0  0.37530  0.90358  0.60340  1.0000
  C   C31       1.0  0.37530  0.59642  0.10340  1.0000
  C   C32       1.0  0.62470  0.09642  0.39660  1.0000
  H   H13       1.0  0.56190  0.43720  0.83950  1.0000
  H   H14       1.0  0.43810  0.93720  0.66050  1.0000
  H   H15       1.0  0.43810  0.56280  0.16050  1.0000
  H   H16       1.0  0.56190  0.06280  0.33950  1.0000
  H   H17       1.0  0.57640  0.37870  0.97660  1.0000
  H   H18       1.0  0.42360  0.87870  0.52340  1.0000
  H   H19       1.0  0.42360  0.62130  0.02340  1.0000
  H   H20       1.0  0.57640  0.12130  0.47660  1.0000
  C   C33       1.0  0.86810  0.52594  0.32400  1.0000
  C   C34       1.0  0.13190  0.02594  0.17600  1.0000
  C   C35       1.0  0.13190  0.47406  0.67600  1.0000
  C   C36       1.0  0.86810  0.97406  0.82400  1.0000
