data_image0
_chemical_formula_structural       La2S2O6S2O6C12S2O6S2O6C12H16
_chemical_formula_sum              "La2 S8 O24 C24 H16"
_cell_length_a       9.75
_cell_length_b       10.216
_cell_length_c       11.647
_cell_angle_alpha    64.72
_cell_angle_beta     84.92
_cell_angle_gamma    76.29

_space_group_name_H-M_alt    "P 1"
_space_group_IT_number       1

loop_
  _space_group_symop_operation_xyz
  'x, y, z'

loop_
  _atom_site_type_symbol
  _atom_site_label
  _atom_site_symmetry_multiplicity
  _atom_site_fract_x
  _atom_site_fract_y
  _atom_site_fract_z
  _atom_site_occupancy
  La  La1       1.0  0.74199  0.97488  0.03822  1.0000
  La  La2       1.0  0.25801  0.02512  0.96178  1.0000
  S   S1        1.0  0.49695  0.17602  0.74195  1.0000
  S   S2        1.0  0.50305  0.82398  0.25805  1.0000
  O   O1        1.0  0.52950  0.31940  0.67310  1.0000
  O   O2        1.0  0.47050  0.68060  0.32690  1.0000
  O   O3        1.0  0.54950  0.09970  0.87420  1.0000
  O   O4        1.0  0.45050  0.90030  0.12580  1.0000
  O   O5        1.0  0.34570  0.17890  0.74380  1.0000
  O   O6        1.0  0.65430  0.82110  0.25620  1.0000
  S   S3        1.0  0.58152  0.79263  0.87832  1.0000
  S   S4        1.0  0.41848  0.20737  0.12168  1.0000
  O   O7        1.0  0.43320  0.85180  0.89460  1.0000
  O   O8        1.0  0.56680  0.14820  0.10540  1.0000
  O   O9        1.0  0.60510  0.64400  0.88380  1.0000
  O   O10       1.0  0.39490  0.35600  0.11620  1.0000
  O   O11       1.0  0.67620  0.79640  0.96660  1.0000
  O   O12       1.0  0.32380  0.20360  0.03340  1.0000
  C   C1        1.0  0.58200  0.06380  0.66310  1.0000
  C   C2        1.0  0.41800  0.93620  0.33690  1.0000
  C   C3        1.0  0.62120  0.90870  0.71860  1.0000
  C   C4        1.0  0.37880  0.09130  0.28140  1.0000
  C   C5        1.0  0.68840  0.83390  0.64590  1.0000
  C   C6        1.0  0.31160  0.16610  0.35410  1.0000
  C   C7        1.0  0.71330  0.91260  0.51820  1.0000
  C   C8        1.0  0.28670  0.08740  0.48180  1.0000
  C   C9        1.0  0.67250  0.06440  0.46190  1.0000
  C   C10       1.0  0.32750  0.93560  0.53810  1.0000
  C   C11       1.0  0.60920  0.14110  0.53480  1.0000
  C   C12       1.0  0.39080  0.85890  0.46520  1.0000
  S   S5        1.0  0.09282  0.69402  0.16298  1.0000
  S   S6        1.0  0.90718  0.30598  0.83702  1.0000
  O   O13       1.0  0.13380  0.54440  0.17340  1.0000
  O   O14       1.0  0.86620  0.45560  0.82660  1.0000
  O   O15       1.0  0.94600  0.76030  0.12630  1.0000
  O   O16       1.0  0.05400  0.23970  0.87370  1.0000
  O   O17       1.0  0.18820  0.78400  0.08210  1.0000
  O   O18       1.0  0.81180  0.21600  0.91790  1.0000
  S   S7        1.0  0.00931  0.98994  0.24430  1.0000
  S   S8        1.0  0.99069  0.01006  0.75570  1.0000
  O   O19       1.0  0.99930  0.07960  0.31230  1.0000
  O   O20       1.0  0.00070  0.92040  0.68770  1.0000
  O   O21       1.0  0.87340  0.00150  0.19580  1.0000
  O   O22       1.0  0.12660  0.99850  0.80420  1.0000
  O   O23       1.0  0.11320  0.02030  0.14490  1.0000
  O   O24       1.0  0.88680  0.97970  0.85510  1.0000
  C   C13       1.0  0.10980  0.68060  0.31980  1.0000
  C   C14       1.0  0.89020  0.31940  0.68020  1.0000
  C   C15       1.0  0.06970  0.80160  0.35350  1.0000
  C   C16       1.0  0.93030  0.19840  0.64650  1.0000
  C   C17       1.0  0.08080  0.77660  0.47960  1.0000
  C   C18       1.0  0.91920  0.22340  0.52040  1.0000
  C   C19       1.0  0.13360  0.63340  0.57120  1.0000
  C   C20       1.0  0.86640  0.36660  0.42880  1.0000
  C   C21       1.0  0.17570  0.51680  0.53810  1.0000
  C   C22       1.0  0.82430  0.48320  0.46190  1.0000
  C   C23       1.0  0.16300  0.54070  0.41180  1.0000
  C   C24       1.0  0.83700  0.45930  0.58820  1.0000
  H   H1        1.0  0.71700  0.72870  0.68430  1.0000
  H   H2        1.0  0.28300  0.27130  0.31570  1.0000
  H   H3        1.0  0.75830  0.86080  0.46910  1.0000
  H   H4        1.0  0.24170  0.13920  0.53090  1.0000
  H   H5        1.0  0.68800  0.11730  0.37420  1.0000
  H   H6        1.0  0.31200  0.88270  0.62580  1.0000
  H   H7        1.0  0.58390  0.24640  0.49650  1.0000
  H   H8        1.0  0.41610  0.75360  0.50350  1.0000
  H   H9        1.0  0.05230  0.85670  0.50370  1.0000
  H   H10       1.0  0.94770  0.14330  0.49630  1.0000
  H   H11       1.0  0.14040  0.61730  0.65700  1.0000
  H   H12       1.0  0.85960  0.38270  0.34300  1.0000
  H   H13       1.0  0.21300  0.41980  0.60080  1.0000
  H   H14       1.0  0.78700  0.58020  0.39920  1.0000
  H   H15       1.0  0.19180  0.45970  0.38870  1.0000
  H   H16       1.0  0.80820  0.54030  0.61130  1.0000
