data_image0
_chemical_formula_structural       Zn16O16C24H8C8H8C8O8C8O24C8O8C16H8C8H8C8O8C8O32C24H8C8H8C8O8C8O24C8O8C16H8C8H8C8O8C8O16
_chemical_formula_sum              "Zn16 O160 C192 H64"
_cell_length_a       23.9306
_cell_length_b       23.9322
_cell_length_c       14.9917
_cell_angle_alpha    90
_cell_angle_beta     113.485
_cell_angle_gamma    90

_space_group_name_H-M_alt    "P 1"
_space_group_IT_number       1

loop_
  _space_group_symop_operation_xyz
  'x, y, z'

loop_
  _atom_site_type_symbol
  _atom_site_label
  _atom_site_symmetry_multiplicity
  _atom_site_fract_x
  _atom_site_fract_y
  _atom_site_fract_z
  _atom_site_occupancy
  Zn  Zn1       1.0  0.24880  0.31244  0.25004  1.0000
  Zn  Zn2       1.0  0.75120  0.31244  0.24996  1.0000
  Zn  Zn3       1.0  0.74880  0.81244  0.25004  1.0000
  Zn  Zn4       1.0  0.25120  0.81244  0.24996  1.0000
  Zn  Zn5       1.0  0.75120  0.68756  0.74996  1.0000
  Zn  Zn6       1.0  0.24880  0.68756  0.75004  1.0000
  Zn  Zn7       1.0  0.25120  0.18756  0.74996  1.0000
  Zn  Zn8       1.0  0.74880  0.18756  0.75004  1.0000
  Zn  Zn9       1.0  0.50000  0.06399  0.25000  1.0000
  Zn  Zn10      1.0  0.00000  0.56399  0.25000  1.0000
  Zn  Zn11      1.0  0.50000  0.93601  0.75000  1.0000
  Zn  Zn12      1.0  0.00000  0.43601  0.75000  1.0000
  Zn  Zn13      1.0  0.00000  0.06171  0.25000  1.0000
  Zn  Zn14      1.0  0.50000  0.56171  0.25000  1.0000
  Zn  Zn15      1.0  0.00000  0.93829  0.75000  1.0000
  Zn  Zn16      1.0  0.50000  0.43829  0.75000  1.0000
  O   O1        1.0  0.32094  0.26434  0.31546  1.0000
  O   O2        1.0  0.67906  0.26434  0.18454  1.0000
  O   O3        1.0  0.82094  0.76434  0.31546  1.0000
  O   O4        1.0  0.17906  0.76434  0.18454  1.0000
  O   O5        1.0  0.67906  0.73566  0.68454  1.0000
  O   O6        1.0  0.32094  0.73566  0.81546  1.0000
  O   O7        1.0  0.17906  0.23566  0.68454  1.0000
  O   O8        1.0  0.82094  0.23566  0.81546  1.0000
  O   O9        1.0  0.36043  0.33271  0.42596  1.0000
  O   O10       1.0  0.63957  0.33271  0.07404  1.0000
  O   O11       1.0  0.86043  0.83271  0.42596  1.0000
  O   O12       1.0  0.13957  0.83271  0.07404  1.0000
  O   O13       1.0  0.63957  0.66729  0.57404  1.0000
  O   O14       1.0  0.36043  0.66729  0.92596  1.0000
  O   O15       1.0  0.13957  0.16729  0.57404  1.0000
  O   O16       1.0  0.86043  0.16729  0.92596  1.0000
  C   C1        1.0  0.36384  0.28761  0.38740  1.0000
  C   C2        1.0  0.63616  0.28761  0.11260  1.0000
  C   C3        1.0  0.86384  0.78761  0.38740  1.0000
  C   C4        1.0  0.13616  0.78761  0.11260  1.0000
  C   C5        1.0  0.63616  0.71239  0.61260  1.0000
  C   C6        1.0  0.36384  0.71239  0.88740  1.0000
  C   C7        1.0  0.13616  0.21239  0.61260  1.0000
  C   C8        1.0  0.86384  0.21239  0.88740  1.0000
  C   C9        1.0  0.42328  0.25774  0.42730  1.0000
  C   C10       1.0  0.57672  0.25774  0.07270  1.0000
  C   C11       1.0  0.92328  0.75774  0.42730  1.0000
  C   C12       1.0  0.07672  0.75774  0.07270  1.0000
  C   C13       1.0  0.57672  0.74226  0.57270  1.0000
  C   C14       1.0  0.42328  0.74226  0.92730  1.0000
  C   C15       1.0  0.07672  0.24226  0.57270  1.0000
  C   C16       1.0  0.92328  0.24226  0.92730  1.0000
  C   C17       1.0  0.47709  0.27004  0.50220  1.0000
  C   C18       1.0  0.52291  0.27004  0.99780  1.0000
  C   C19       1.0  0.97709  0.77004  0.50220  1.0000
  C   C20       1.0  0.02291  0.77004  0.99780  1.0000
  C   C21       1.0  0.52291  0.72996  0.49780  1.0000
  C   C22       1.0  0.47709  0.72996  0.00220  1.0000
  C   C23       1.0  0.02291  0.22996  0.49780  1.0000
  C   C24       1.0  0.97709  0.22996  0.00220  1.0000
  H   H1        1.0  0.48509  0.30060  0.54599  1.0000
  H   H2        1.0  0.51491  0.30060  0.95401  1.0000
  H   H3        1.0  0.98509  0.80060  0.54599  1.0000
  H   H4        1.0  0.01491  0.80060  0.95401  1.0000
  H   H5        1.0  0.51491  0.69940  0.45401  1.0000
  H   H6        1.0  0.48509  0.69940  0.04599  1.0000
  H   H7        1.0  0.01491  0.19940  0.45401  1.0000
  H   H8        1.0  0.98509  0.19940  0.04599  1.0000
  C   C25       1.0  0.51892  0.22800  0.50170  1.0000
  C   C26       1.0  0.48108  0.22800  0.99830  1.0000
  C   C27       1.0  0.01892  0.72800  0.50170  1.0000
  C   C28       1.0  0.98108  0.72800  0.99830  1.0000
  C   C29       1.0  0.48108  0.77200  0.49830  1.0000
  C   C30       1.0  0.51892  0.77200  0.00170  1.0000
  C   C31       1.0  0.98108  0.27200  0.49830  1.0000
  C   C32       1.0  0.01892  0.27200  0.00170  1.0000
  H   H9        1.0  0.56048  0.22505  0.54521  1.0000
  H   H10       1.0  0.43952  0.22505  0.95479  1.0000
  H   H11       1.0  0.06048  0.72505  0.54521  1.0000
  H   H12       1.0  0.93952  0.72505  0.95479  1.0000
  H   H13       1.0  0.43952  0.77495  0.45479  1.0000
  H   H14       1.0  0.56048  0.77495  0.04521  1.0000
  H   H15       1.0  0.93952  0.27495  0.45479  1.0000
  H   H16       1.0  0.06048  0.27495  0.04521  1.0000
  C   C33       1.0  0.48822  0.19301  0.42740  1.0000
  C   C34       1.0  0.51178  0.19301  0.07260  1.0000
  C   C35       1.0  0.98822  0.69301  0.42740  1.0000
  C   C36       1.0  0.01178  0.69301  0.07260  1.0000
  C   C37       1.0  0.51178  0.80699  0.57260  1.0000
  C   C38       1.0  0.48822  0.80699  0.92740  1.0000
  C   C39       1.0  0.01178  0.30699  0.57260  1.0000
  C   C40       1.0  0.98822  0.30699  0.92740  1.0000
  O   O17       1.0  0.42898  0.21053  0.38013  1.0000
  O   O18       1.0  0.57102  0.21053  0.11987  1.0000
  O   O19       1.0  0.92898  0.71053  0.38013  1.0000
  O   O20       1.0  0.07102  0.71053  0.11987  1.0000
  O   O21       1.0  0.57102  0.78947  0.61987  1.0000
  O   O22       1.0  0.42898  0.78947  0.88013  1.0000
  O   O23       1.0  0.07102  0.28947  0.61987  1.0000
  O   O24       1.0  0.92898  0.28947  0.88013  1.0000
  C   C41       1.0  0.50788  0.14334  0.38740  1.0000
  C   C42       1.0  0.49212  0.14334  0.11260  1.0000
  C   C43       1.0  0.00788  0.64334  0.38740  1.0000
  C   C44       1.0  0.99212  0.64334  0.11260  1.0000
  C   C45       1.0  0.49212  0.85666  0.61260  1.0000
  C   C46       1.0  0.50788  0.85666  0.88740  1.0000
  C   C47       1.0  0.99212  0.35666  0.61260  1.0000
  C   C48       1.0  0.00788  0.35666  0.88740  1.0000
  O   O25       1.0  0.56281  0.13080  0.42544  1.0000
  O   O26       1.0  0.43719  0.13080  0.07456  1.0000
  O   O27       1.0  0.06281  0.63080  0.42544  1.0000
  O   O28       1.0  0.93719  0.63080  0.07456  1.0000
  O   O29       1.0  0.43719  0.86920  0.57456  1.0000
  O   O30       1.0  0.56281  0.86920  0.92544  1.0000
  O   O31       1.0  0.93719  0.36920  0.57456  1.0000
  O   O32       1.0  0.06281  0.36920  0.92544  1.0000
  O   O33       1.0  0.46652  0.11781  0.31633  1.0000
  O   O34       1.0  0.53348  0.11781  0.18367  1.0000
  O   O35       1.0  0.96652  0.61781  0.31633  1.0000
  O   O36       1.0  0.03348  0.61781  0.18367  1.0000
  O   O37       1.0  0.53348  0.88219  0.68367  1.0000
  O   O38       1.0  0.46652  0.88219  0.81633  1.0000
  O   O39       1.0  0.03348  0.38219  0.68367  1.0000
  O   O40       1.0  0.96652  0.38219  0.81633  1.0000
  O   O41       1.0  0.18488  0.25644  0.18466  1.0000
  O   O42       1.0  0.81512  0.25644  0.31534  1.0000
  O   O43       1.0  0.68488  0.75644  0.18466  1.0000
  O   O44       1.0  0.31512  0.75644  0.31534  1.0000
  O   O45       1.0  0.81512  0.74356  0.81534  1.0000
  O   O46       1.0  0.18488  0.74356  0.68466  1.0000
  O   O47       1.0  0.31512  0.24356  0.81534  1.0000
  O   O48       1.0  0.68488  0.24356  0.68466  1.0000
  C   C49       1.0  0.19016  0.23112  0.11310  1.0000
  C   C50       1.0  0.80984  0.23112  0.38690  1.0000
  C   C51       1.0  0.69016  0.73112  0.11310  1.0000
  C   C52       1.0  0.30984  0.73112  0.38690  1.0000
  C   C53       1.0  0.80984  0.76888  0.88690  1.0000
  C   C54       1.0  0.19016  0.76888  0.61310  1.0000
  C   C55       1.0  0.30984  0.26888  0.88690  1.0000
  C   C56       1.0  0.69016  0.26888  0.61310  1.0000
  O   O49       1.0  0.22561  0.24406  0.07421  1.0000
  O   O50       1.0  0.77439  0.24406  0.42579  1.0000
  O   O51       1.0  0.72561  0.74406  0.07421  1.0000
  O   O52       1.0  0.27439  0.74406  0.42579  1.0000
  O   O53       1.0  0.77439  0.75594  0.92579  1.0000
  O   O54       1.0  0.22561  0.75594  0.57421  1.0000
  O   O55       1.0  0.27439  0.25594  0.92579  1.0000
  O   O56       1.0  0.72561  0.25594  0.57421  1.0000
  C   C57       1.0  0.15024  0.18164  0.07330  1.0000
  C   C58       1.0  0.84976  0.18164  0.42670  1.0000
  C   C59       1.0  0.65024  0.68164  0.07330  1.0000
  C   C60       1.0  0.34976  0.68164  0.42670  1.0000
  C   C61       1.0  0.84976  0.81836  0.92670  1.0000
  C   C62       1.0  0.15024  0.81836  0.57330  1.0000
  C   C63       1.0  0.34976  0.31836  0.92670  1.0000
  C   C64       1.0  0.65024  0.31836  0.57330  1.0000
  C   C65       1.0  0.14337  0.14663  0.99810  1.0000
  C   C66       1.0  0.85663  0.14663  0.50190  1.0000
  C   C67       1.0  0.64337  0.64663  0.99810  1.0000
  C   C68       1.0  0.35663  0.64663  0.50190  1.0000
  C   C69       1.0  0.85663  0.85337  0.00190  1.0000
  C   C70       1.0  0.14337  0.85337  0.49810  1.0000
  C   C71       1.0  0.35663  0.35337  0.00190  1.0000
  C   C72       1.0  0.64337  0.35337  0.49810  1.0000
  H   H17       1.0  0.16314  0.14938  0.95446  1.0000
  H   H18       1.0  0.83686  0.14938  0.54554  1.0000
  H   H19       1.0  0.66314  0.64938  0.95446  1.0000
  H   H20       1.0  0.33686  0.64938  0.54554  1.0000
  H   H21       1.0  0.83686  0.85062  0.04554  1.0000
  H   H22       1.0  0.16314  0.85062  0.45446  1.0000
  H   H23       1.0  0.33686  0.35062  0.04554  1.0000
  H   H24       1.0  0.66314  0.35062  0.45446  1.0000
  C   C73       1.0  0.10090  0.10527  0.99770  1.0000
  C   C74       1.0  0.89910  0.10527  0.50230  1.0000
  C   C75       1.0  0.60090  0.60527  0.99770  1.0000
  C   C76       1.0  0.39910  0.60527  0.50230  1.0000
  C   C77       1.0  0.89910  0.89473  0.00230  1.0000
  C   C78       1.0  0.10090  0.89473  0.49770  1.0000
  C   C79       1.0  0.39910  0.39473  0.00230  1.0000
  C   C80       1.0  0.60090  0.39473  0.49770  1.0000
  H   H25       1.0  0.08676  0.07471  0.95396  1.0000
  H   H26       1.0  0.91324  0.07471  0.54604  1.0000
  H   H27       1.0  0.58676  0.57471  0.95396  1.0000
  H   H28       1.0  0.41324  0.57471  0.54604  1.0000
  H   H29       1.0  0.91324  0.92529  0.04604  1.0000
  H   H30       1.0  0.08676  0.92529  0.45396  1.0000
  H   H31       1.0  0.41324  0.42529  0.04604  1.0000
  H   H32       1.0  0.58676  0.42529  0.45396  1.0000
  C   C81       1.0  0.08430  0.11797  0.07250  1.0000
  C   C82       1.0  0.91570  0.11797  0.42750  1.0000
  C   C83       1.0  0.58430  0.61797  0.07250  1.0000
  C   C84       1.0  0.41570  0.61797  0.42750  1.0000
  C   C85       1.0  0.91570  0.88203  0.92750  1.0000
  C   C86       1.0  0.08430  0.88203  0.57250  1.0000
  C   C87       1.0  0.41570  0.38203  0.92750  1.0000
  C   C88       1.0  0.58430  0.38203  0.57250  1.0000
  O   O57       1.0  0.11411  0.16479  0.11989  1.0000
  O   O58       1.0  0.88589  0.16479  0.38011  1.0000
  O   O59       1.0  0.61411  0.66479  0.11989  1.0000
  O   O60       1.0  0.38589  0.66479  0.38011  1.0000
  O   O61       1.0  0.88589  0.83521  0.88011  1.0000
  O   O62       1.0  0.11411  0.83521  0.61989  1.0000
  O   O63       1.0  0.38589  0.33521  0.88011  1.0000
  O   O64       1.0  0.61411  0.33521  0.61989  1.0000
  C   C89       1.0  0.04462  0.08835  0.11270  1.0000
  C   C90       1.0  0.95538  0.08835  0.38730  1.0000
  C   C91       1.0  0.54462  0.58835  0.11270  1.0000
  C   C92       1.0  0.45538  0.58835  0.38730  1.0000
  C   C93       1.0  0.95538  0.91165  0.88730  1.0000
  C   C94       1.0  0.04462  0.91165  0.61270  1.0000
  C   C95       1.0  0.45538  0.41165  0.88730  1.0000
  C   C96       1.0  0.54462  0.41165  0.61270  1.0000
  O   O65       1.0  0.02234  0.04302  0.07451  1.0000
  O   O66       1.0  0.97766  0.04302  0.42549  1.0000
  O   O67       1.0  0.52234  0.54302  0.07451  1.0000
  O   O68       1.0  0.47766  0.54302  0.42549  1.0000
  O   O69       1.0  0.97766  0.95698  0.92549  1.0000
  O   O70       1.0  0.02234  0.95698  0.57451  1.0000
  O   O71       1.0  0.47766  0.45698  0.92549  1.0000
  O   O72       1.0  0.52234  0.45698  0.57451  1.0000
  O   O73       1.0  0.03711  0.11202  0.18358  1.0000
  O   O74       1.0  0.96289  0.11202  0.31642  1.0000
  O   O75       1.0  0.53711  0.61202  0.18358  1.0000
  O   O76       1.0  0.46289  0.61202  0.31642  1.0000
  O   O77       1.0  0.96289  0.88798  0.81642  1.0000
  O   O78       1.0  0.03711  0.88798  0.68358  1.0000
  O   O79       1.0  0.46289  0.38798  0.81642  1.0000
  O   O80       1.0  0.53711  0.38798  0.68358  1.0000
  O   O81       1.0  0.20893  0.36058  0.31454  1.0000
  O   O82       1.0  0.79107  0.36058  0.18546  1.0000
  O   O83       1.0  0.70893  0.86058  0.31454  1.0000
  O   O84       1.0  0.29107  0.86058  0.18546  1.0000
  O   O85       1.0  0.79107  0.63942  0.68546  1.0000
  O   O86       1.0  0.20893  0.63942  0.81454  1.0000
  O   O87       1.0  0.29107  0.13942  0.68546  1.0000
  O   O88       1.0  0.70893  0.13942  0.81454  1.0000
  O   O89       1.0  0.22469  0.29314  0.42659  1.0000
  O   O90       1.0  0.77531  0.29314  0.07341  1.0000
  O   O91       1.0  0.72469  0.79314  0.42659  1.0000
  O   O92       1.0  0.27531  0.79314  0.07341  1.0000
  O   O93       1.0  0.77531  0.70686  0.57341  1.0000
  O   O94       1.0  0.22469  0.70686  0.92659  1.0000
  O   O95       1.0  0.27531  0.20686  0.57341  1.0000
  O   O96       1.0  0.72469  0.20686  0.92659  1.0000
  C   C97       1.0  0.20188  0.33804  0.38670  1.0000
  C   C98       1.0  0.79812  0.33804  0.11330  1.0000
  C   C99       1.0  0.70188  0.83804  0.38670  1.0000
  C   C100      1.0  0.29812  0.83804  0.11330  1.0000
  C   C101      1.0  0.79812  0.66196  0.61330  1.0000
  C   C102      1.0  0.20188  0.66196  0.88670  1.0000
  C   C103      1.0  0.29812  0.16196  0.61330  1.0000
  C   C104      1.0  0.70188  0.16196  0.88670  1.0000
  C   C105      1.0  0.16255  0.36865  0.42660  1.0000
  C   C106      1.0  0.83745  0.36865  0.07340  1.0000
  C   C107      1.0  0.66255  0.86865  0.42660  1.0000
  C   C108      1.0  0.33745  0.86865  0.07340  1.0000
  C   C109      1.0  0.83745  0.63135  0.57340  1.0000
  C   C110      1.0  0.16255  0.63135  0.92660  1.0000
  C   C111      1.0  0.33745  0.13135  0.57340  1.0000
  C   C112      1.0  0.66255  0.13135  0.92660  1.0000
  C   C113      1.0  0.14619  0.35700  0.50160  1.0000
  C   C114      1.0  0.85381  0.35700  0.99840  1.0000
  C   C115      1.0  0.64619  0.85700  0.50160  1.0000
  C   C116      1.0  0.35381  0.85700  0.99840  1.0000
  C   C117      1.0  0.85381  0.64300  0.49840  1.0000
  C   C118      1.0  0.14619  0.64300  0.00160  1.0000
  C   C119      1.0  0.35381  0.14300  0.49840  1.0000
  C   C120      1.0  0.64619  0.14300  0.00160  1.0000
  H   H33       1.0  0.15955  0.32631  0.54526  1.0000
  H   H34       1.0  0.84045  0.32631  0.95474  1.0000
  H   H35       1.0  0.65955  0.82631  0.54526  1.0000
  H   H36       1.0  0.34045  0.82631  0.95474  1.0000
  H   H37       1.0  0.84045  0.67369  0.45474  1.0000
  H   H38       1.0  0.15955  0.67369  0.04526  1.0000
  H   H39       1.0  0.34045  0.17369  0.45474  1.0000
  H   H40       1.0  0.65955  0.17369  0.04526  1.0000
  C   C121      1.0  0.10528  0.39969  0.50180  1.0000
  C   C122      1.0  0.89472  0.39969  0.99820  1.0000
  C   C123      1.0  0.60528  0.89969  0.50180  1.0000
  C   C124      1.0  0.39472  0.89969  0.99820  1.0000
  C   C125      1.0  0.89472  0.60031  0.49820  1.0000
  C   C126      1.0  0.10528  0.60031  0.00180  1.0000
  C   C127      1.0  0.39472  0.10031  0.49820  1.0000
  C   C128      1.0  0.60528  0.10031  0.00180  1.0000
  H   H41       1.0  0.08570  0.40315  0.54563  1.0000
  H   H42       1.0  0.91430  0.40315  0.95437  1.0000
  H   H43       1.0  0.58570  0.90315  0.54563  1.0000
  H   H44       1.0  0.41430  0.90315  0.95437  1.0000
  H   H45       1.0  0.91430  0.59685  0.45437  1.0000
  H   H46       1.0  0.08570  0.59685  0.04563  1.0000
  H   H47       1.0  0.41430  0.09685  0.45437  1.0000
  H   H48       1.0  0.58570  0.09685  0.04563  1.0000
  C   C129      1.0  0.09941  0.43480  0.42720  1.0000
  C   C130      1.0  0.90059  0.43480  0.07280  1.0000
  C   C131      1.0  0.59941  0.93480  0.42720  1.0000
  C   C132      1.0  0.40059  0.93480  0.07280  1.0000
  C   C133      1.0  0.90059  0.56520  0.57280  1.0000
  C   C134      1.0  0.09941  0.56520  0.92720  1.0000
  C   C135      1.0  0.40059  0.06520  0.57280  1.0000
  C   C136      1.0  0.59941  0.06520  0.92720  1.0000
  O   O97       1.0  0.13433  0.41634  0.37979  1.0000
  O   O98       1.0  0.86567  0.41634  0.12021  1.0000
  O   O99       1.0  0.63433  0.91634  0.37979  1.0000
  O   O100      1.0  0.36567  0.91634  0.12021  1.0000
  O   O101      1.0  0.86567  0.58366  0.62021  1.0000
  O   O102      1.0  0.13433  0.58366  0.87979  1.0000
  O   O103      1.0  0.36567  0.08366  0.62021  1.0000
  O   O104      1.0  0.63433  0.08366  0.87979  1.0000
  C   C137      1.0  0.06028  0.48445  0.38700  1.0000
  C   C138      1.0  0.93972  0.48445  0.11300  1.0000
  C   C139      1.0  0.56028  0.98445  0.38700  1.0000
  C   C140      1.0  0.43972  0.98445  0.11300  1.0000
  C   C141      1.0  0.93972  0.51555  0.61300  1.0000
  C   C142      1.0  0.06028  0.51555  0.88700  1.0000
  C   C143      1.0  0.43972  0.01555  0.61300  1.0000
  C   C144      1.0  0.56028  0.01555  0.88700  1.0000
  O   O105      1.0  0.02389  0.49740  0.42431  1.0000
  O   O106      1.0  0.97611  0.49740  0.07569  1.0000
  O   O107      1.0  0.52389  0.99740  0.42431  1.0000
  O   O108      1.0  0.47611  0.99740  0.07569  1.0000
  O   O109      1.0  0.97611  0.50260  0.57569  1.0000
  O   O110      1.0  0.02389  0.50260  0.92431  1.0000
  O   O111      1.0  0.47611  0.00260  0.57569  1.0000
  O   O112      1.0  0.52389  0.00260  0.92431  1.0000
  O   O113      1.0  0.06656  0.50992  0.31622  1.0000
  O   O114      1.0  0.93344  0.50992  0.18378  1.0000
  O   O115      1.0  0.56656  0.00992  0.31622  1.0000
  O   O116      1.0  0.43344  0.00992  0.18378  1.0000
  O   O117      1.0  0.93344  0.49008  0.68378  1.0000
  O   O118      1.0  0.06656  0.49008  0.81622  1.0000
  O   O119      1.0  0.43344  0.99008  0.68378  1.0000
  O   O120      1.0  0.56656  0.99008  0.81622  1.0000
  O   O121      1.0  0.28125  0.36821  0.18571  1.0000
  O   O122      1.0  0.71875  0.36821  0.31429  1.0000
  O   O123      1.0  0.78125  0.86821  0.18571  1.0000
  O   O124      1.0  0.21875  0.86821  0.31429  1.0000
  O   O125      1.0  0.71875  0.63179  0.81429  1.0000
  O   O126      1.0  0.28125  0.63179  0.68571  1.0000
  O   O127      1.0  0.21875  0.13179  0.81429  1.0000
  O   O128      1.0  0.78125  0.13179  0.68571  1.0000
  C   C145      1.0  0.24070  0.39302  0.11330  1.0000
  C   C146      1.0  0.75930  0.39302  0.38670  1.0000
  C   C147      1.0  0.74070  0.89302  0.11330  1.0000
  C   C148      1.0  0.25930  0.89302  0.38670  1.0000
  C   C149      1.0  0.75930  0.60698  0.88670  1.0000
  C   C150      1.0  0.24070  0.60698  0.61330  1.0000
  C   C151      1.0  0.25930  0.10698  0.88670  1.0000
  C   C152      1.0  0.74070  0.10698  0.61330  1.0000
  O   O129      1.0  0.18587  0.37994  0.07375  1.0000
  O   O130      1.0  0.81413  0.37994  0.42625  1.0000
  O   O131      1.0  0.68587  0.87994  0.07375  1.0000
  O   O132      1.0  0.31413  0.87994  0.42625  1.0000
  O   O133      1.0  0.81413  0.62006  0.92625  1.0000
  O   O134      1.0  0.18587  0.62006  0.57375  1.0000
  O   O135      1.0  0.31413  0.12006  0.92625  1.0000
  O   O136      1.0  0.68587  0.12006  0.57375  1.0000
  C   C153      1.0  0.26107  0.44224  0.07340  1.0000
  C   C154      1.0  0.73893  0.44224  0.42660  1.0000
  C   C155      1.0  0.76107  0.94224  0.07340  1.0000
  C   C156      1.0  0.23893  0.94224  0.42660  1.0000
  C   C157      1.0  0.73893  0.55776  0.92660  1.0000
  C   C158      1.0  0.26107  0.55776  0.57340  1.0000
  C   C159      1.0  0.23893  0.05776  0.92660  1.0000
  C   C160      1.0  0.76107  0.05776  0.57340  1.0000
  C   C161      1.0  0.23017  0.47734  0.99830  1.0000
  C   C162      1.0  0.76983  0.47734  0.50170  1.0000
  C   C163      1.0  0.73017  0.97734  0.99830  1.0000
  C   C164      1.0  0.26983  0.97734  0.50170  1.0000
  C   C165      1.0  0.76983  0.52266  0.00170  1.0000
  C   C166      1.0  0.23017  0.52266  0.49830  1.0000
  C   C167      1.0  0.26983  0.02266  0.00170  1.0000
  C   C168      1.0  0.73017  0.02266  0.49830  1.0000
  H   H49       1.0  0.18871  0.47440  0.95430  1.0000
  H   H50       1.0  0.81129  0.47440  0.54570  1.0000
  H   H51       1.0  0.68871  0.97440  0.95430  1.0000
  H   H52       1.0  0.31129  0.97440  0.54570  1.0000
  H   H53       1.0  0.81129  0.52560  0.04570  1.0000
  H   H54       1.0  0.18871  0.52560  0.45430  1.0000
  H   H55       1.0  0.31129  0.02560  0.04570  1.0000
  H   H56       1.0  0.68871  0.02560  0.45430  1.0000
  C   C169      1.0  0.27237  0.51919  0.99890  1.0000
  C   C170      1.0  0.72763  0.51919  0.50110  1.0000
  C   C171      1.0  0.77237  0.01919  0.99890  1.0000
  C   C172      1.0  0.22763  0.01919  0.50110  1.0000
  C   C173      1.0  0.72763  0.48081  0.00110  1.0000
  C   C174      1.0  0.27237  0.48081  0.49890  1.0000
  C   C175      1.0  0.22763  0.98081  0.00110  1.0000
  C   C176      1.0  0.77237  0.98081  0.49890  1.0000
  H   H57       1.0  0.26461  0.55000  0.95562  1.0000
  H   H58       1.0  0.73539  0.55000  0.54438  1.0000
  H   H59       1.0  0.76461  0.05000  0.95562  1.0000
  H   H60       1.0  0.23539  0.05000  0.54438  1.0000
  H   H61       1.0  0.73539  0.45000  0.04438  1.0000
  H   H62       1.0  0.26461  0.45000  0.45562  1.0000
  H   H63       1.0  0.23539  0.95000  0.04438  1.0000
  H   H64       1.0  0.76461  0.95000  0.45562  1.0000
  C   C177      1.0  0.32608  0.50652  0.07350  1.0000
  C   C178      1.0  0.67392  0.50652  0.42650  1.0000
  C   C179      1.0  0.82608  0.00652  0.07350  1.0000
  C   C180      1.0  0.17392  0.00652  0.42650  1.0000
  C   C181      1.0  0.67392  0.49348  0.92650  1.0000
  C   C182      1.0  0.32608  0.49348  0.57350  1.0000
  C   C183      1.0  0.17392  0.99348  0.92650  1.0000
  C   C184      1.0  0.82608  0.99348  0.57350  1.0000
  O   O137      1.0  0.31999  0.45926  0.12017  1.0000
  O   O138      1.0  0.68001  0.45926  0.37983  1.0000
  O   O139      1.0  0.81999  0.95926  0.12017  1.0000
  O   O140      1.0  0.18001  0.95926  0.37983  1.0000
  O   O141      1.0  0.68001  0.54074  0.87983  1.0000
  O   O142      1.0  0.31999  0.54074  0.62017  1.0000
  O   O143      1.0  0.18001  0.04074  0.87983  1.0000
  O   O144      1.0  0.81999  0.04074  0.62017  1.0000
  C   C185      1.0  0.38583  0.53592  0.11300  1.0000
  C   C186      1.0  0.61417  0.53592  0.38700  1.0000
  C   C187      1.0  0.88583  0.03592  0.11300  1.0000
  C   C188      1.0  0.11417  0.03592  0.38700  1.0000
  C   C189      1.0  0.61417  0.46408  0.88700  1.0000
  C   C190      1.0  0.38583  0.46408  0.61300  1.0000
  C   C191      1.0  0.11417  0.96408  0.88700  1.0000
  C   C192      1.0  0.88583  0.96408  0.61300  1.0000
  O   O145      1.0  0.38926  0.58145  0.07567  1.0000
  O   O146      1.0  0.61074  0.58145  0.42433  1.0000
  O   O147      1.0  0.88926  0.08145  0.07567  1.0000
  O   O148      1.0  0.11074  0.08145  0.42433  1.0000
  O   O149      1.0  0.61074  0.41855  0.92433  1.0000
  O   O150      1.0  0.38926  0.41855  0.57567  1.0000
  O   O151      1.0  0.11074  0.91855  0.92433  1.0000
  O   O152      1.0  0.88926  0.91855  0.57567  1.0000
  O   O153      1.0  0.42923  0.51187  0.18375  1.0000
  O   O154      1.0  0.57077  0.51187  0.31625  1.0000
  O   O155      1.0  0.92923  0.01187  0.18375  1.0000
  O   O156      1.0  0.07077  0.01187  0.31625  1.0000
  O   O157      1.0  0.57077  0.48813  0.81625  1.0000
  O   O158      1.0  0.42923  0.48813  0.68375  1.0000
  O   O159      1.0  0.07077  0.98813  0.81625  1.0000
  O   O160      1.0  0.92923  0.98813  0.68375  1.0000
