data_image0
_chemical_formula_structural       CdO8C6H2C14H2C6H2C2H2C2H2C2H2C4H2C2H2C2H2C2H2C2H2
_chemical_formula_sum              "Cd1 O8 C44 H22"
_cell_length_a       7.6943
_cell_length_b       10.7032
_cell_length_c       15.4146
_cell_angle_alpha    104.301
_cell_angle_beta     94.915
_cell_angle_gamma    110.23

_space_group_name_H-M_alt    "P 1"
_space_group_IT_number       1

loop_
  _space_group_symop_operation_xyz
  'x, y, z'

loop_
  _atom_site_type_symbol
  _atom_site_label
  _atom_site_symmetry_multiplicity
  _atom_site_fract_x
  _atom_site_fract_y
  _atom_site_fract_z
  _atom_site_occupancy
  Cd  Cd1       1.0  0.50000  0.00000  0.50000  1.0000
  O   O1        1.0  0.77540  0.96560  0.44640  1.0000
  O   O2        1.0  0.22460  0.03440  0.55360  1.0000
  O   O3        1.0  0.27700  0.80640  0.40230  1.0000
  O   O4        1.0  0.72300  0.19360  0.59770  1.0000
  O   O5        1.0  0.60130  0.03810  0.36620  1.0000
  O   O6        1.0  0.39870  0.96190  0.63380  1.0000
  O   O7        1.0  0.45050  0.69450  0.44200  1.0000
  O   O8        1.0  0.54950  0.30550  0.55800  1.0000
  C   C1        1.0  0.32290  0.99710  0.07830  1.0000
  C   C2        1.0  0.67710  0.00290  0.92170  1.0000
  C   C3        1.0  0.84710  0.98360  0.30160  1.0000
  C   C4        1.0  0.15290  0.01640  0.69840  1.0000
  C   C5        1.0  0.43040  0.12600  0.14800  1.0000
  C   C6        1.0  0.56960  0.87400  0.85200  1.0000
  H   H1        1.0  0.37560  0.15620  0.19630  1.0000
  H   H2        1.0  0.62440  0.84380  0.80370  1.0000
  C   C7        1.0  0.13850  0.91200  0.08100  1.0000
  C   C8        1.0  0.86150  0.08800  0.91900  1.0000
  C   C9        1.0  0.40560  0.95770  0.00210  1.0000
  C   C10       1.0  0.59440  0.04230  0.99790  1.0000
  C   C11       1.0  0.69870  0.16450  0.07210  1.0000
  C   C12       1.0  0.30130  0.83550  0.92790  1.0000
  C   C13       1.0  0.00850  0.36350  0.14990  1.0000
  C   C14       1.0  0.99150  0.63650  0.85010  1.0000
  C   C15       1.0  0.88710  0.24240  0.06960  1.0000
  C   C16       1.0  0.11290  0.75760  0.93040  1.0000
  C   C17       1.0  0.04220  0.94200  0.15950  1.0000
  C   C18       1.0  0.95780  0.05800  0.84050  1.0000
  C   C19       1.0  0.60960  0.20460  0.14510  1.0000
  C   C20       1.0  0.39040  0.79540  0.85490  1.0000
  H   H3        1.0  0.67560  0.28650  0.19190  1.0000
  H   H4        1.0  0.32440  0.71350  0.80810  1.0000
  C   C21       1.0  0.22440  0.58470  0.30390  1.0000
  C   C22       1.0  0.77560  0.41530  0.69610  1.0000
  C   C23       1.0  0.73650  0.99840  0.37680  1.0000
  C   C24       1.0  0.26350  0.00160  0.62320  1.0000
  C   C25       1.0  0.76500  0.96180  0.21280  1.0000
  C   C26       1.0  0.23500  0.03820  0.78720  1.0000
  H   H5        1.0  0.64450  0.96170  0.20030  1.0000
  H   H6        1.0  0.35550  0.03830  0.79970  1.0000
  C   C27       1.0  0.02860  0.98730  0.31900  1.0000
  C   C28       1.0  0.97140  0.01270  0.68100  1.0000
  H   H7        1.0  0.08560  0.00330  0.37850  1.0000
  H   H8        1.0  0.91440  0.99670  0.62150  1.0000
  C   C29       1.0  0.03720  0.79570  0.00640  1.0000
  C   C30       1.0  0.96280  0.20430  0.99360  1.0000
  H   H9        1.0  0.91390  0.74170  0.00760  1.0000
  H   H10       1.0  0.08610  0.25830  0.99240  1.0000
  C   C31       1.0  0.86170  0.94020  0.14270  1.0000
  C   C32       1.0  0.13830  0.05980  0.85730  1.0000
  H   H11       1.0  0.80450  0.92420  0.08320  1.0000
  H   H12       1.0  0.19550  0.07580  0.91680  1.0000
  C   C33       1.0  0.32760  0.70340  0.38970  1.0000
  C   C34       1.0  0.67240  0.29660  0.61030  1.0000
  C   C35       1.0  0.12560  0.96760  0.24930  1.0000
  C   C36       1.0  0.87440  0.03240  0.75070  1.0000
  H   H13       1.0  0.24790  0.97140  0.26220  1.0000
  H   H14       1.0  0.75210  0.02860  0.73780  1.0000
  C   C37       1.0  0.03760  0.49920  0.15240  1.0000
  C   C38       1.0  0.96240  0.50080  0.84760  1.0000
  H   H15       1.0  0.98640  0.51750  0.10230  1.0000
  H   H16       1.0  0.01360  0.48250  0.89770  1.0000
  C   C39       1.0  0.14300  0.60870  0.22940  1.0000
  C   C40       1.0  0.85700  0.39130  0.77060  1.0000
  H   H17       1.0  0.15900  0.69950  0.23090  1.0000
  H   H18       1.0  0.84100  0.30050  0.76910  1.0000
  C   C41       1.0  0.20510  0.45060  0.29960  1.0000
  C   C42       1.0  0.79490  0.54940  0.70040  1.0000
  H   H19       1.0  0.26670  0.43370  0.34730  1.0000
  H   H20       1.0  0.73330  0.56630  0.65270  1.0000
  C   C43       1.0  0.09370  0.33990  0.22400  1.0000
  C   C44       1.0  0.90630  0.66010  0.77600  1.0000
  H   H21       1.0  0.07620  0.24910  0.22320  1.0000
  H   H22       1.0  0.92380  0.75090  0.77680  1.0000
