data_image0
_chemical_formula_structural       Zn4S4N4O16N4C4N12H8
_chemical_formula_sum              "Zn4 S4 N20 O16 C4 H8"
_cell_length_a       10.745
_cell_length_b       10.2895
_cell_length_c       9.3049
_cell_angle_alpha    90
_cell_angle_beta     95.914
_cell_angle_gamma    90

_space_group_name_H-M_alt    "P 1"
_space_group_IT_number       1

loop_
  _space_group_symop_operation_xyz
  'x, y, z'

loop_
  _atom_site_type_symbol
  _atom_site_label
  _atom_site_symmetry_multiplicity
  _atom_site_fract_x
  _atom_site_fract_y
  _atom_site_fract_z
  _atom_site_occupancy
  Zn  Zn1       1.0  0.35128  0.82670  0.18598  1.0000
  Zn  Zn2       1.0  0.64872  0.32670  0.31402  1.0000
  Zn  Zn3       1.0  0.64872  0.17330  0.81402  1.0000
  Zn  Zn4       1.0  0.35128  0.67330  0.68598  1.0000
  S   S1        1.0  0.17487  0.71883  0.93342  1.0000
  S   S2        1.0  0.82513  0.21883  0.56658  1.0000
  S   S3        1.0  0.82513  0.28117  0.06658  1.0000
  S   S4        1.0  0.17487  0.78117  0.43342  1.0000
  N   N1        1.0  0.46610  0.68370  0.25180  1.0000
  N   N2        1.0  0.53390  0.18370  0.24820  1.0000
  N   N3        1.0  0.53390  0.31630  0.74820  1.0000
  N   N4        1.0  0.46610  0.81630  0.75180  1.0000
  O   O1        1.0  0.20500  0.65640  0.79680  1.0000
  O   O2        1.0  0.79500  0.15640  0.70320  1.0000
  O   O3        1.0  0.79500  0.34360  0.20320  1.0000
  O   O4        1.0  0.20500  0.84360  0.29680  1.0000
  O   O5        1.0  0.05970  0.79520  0.90110  1.0000
  O   O6        1.0  0.94030  0.29520  0.59890  1.0000
  O   O7        1.0  0.94030  0.20480  0.09890  1.0000
  O   O8        1.0  0.05970  0.70480  0.40110  1.0000
  O   O9        1.0  0.28030  0.80710  0.98460  1.0000
  O   O10       1.0  0.71970  0.30710  0.51540  1.0000
  O   O11       1.0  0.71970  0.19290  0.01540  1.0000
  O   O12       1.0  0.28030  0.69290  0.48460  1.0000
  O   O13       1.0  0.15770  0.62000  0.04290  1.0000
  O   O14       1.0  0.84230  0.12000  0.45710  1.0000
  O   O15       1.0  0.84230  0.38000  0.95710  1.0000
  O   O16       1.0  0.15770  0.88000  0.54290  1.0000
  N   N5        1.0  0.56380  0.70680  0.35460  1.0000
  N   N6        1.0  0.43620  0.20680  0.14540  1.0000
  N   N7        1.0  0.43620  0.29320  0.64540  1.0000
  N   N8        1.0  0.56380  0.79320  0.85460  1.0000
  C   C1        1.0  0.47000  0.55520  0.22230  1.0000
  C   C2        1.0  0.53000  0.05520  0.27770  1.0000
  C   C3        1.0  0.53000  0.44480  0.77770  1.0000
  C   C4        1.0  0.47000  0.94480  0.72230  1.0000
  N   N9        1.0  0.56850  0.50150  0.30410  1.0000
  N   N10       1.0  0.43150  0.00150  0.19590  1.0000
  N   N11       1.0  0.43150  0.49850  0.69590  1.0000
  N   N12       1.0  0.56850  0.99850  0.80410  1.0000
  N   N13       1.0  0.62470  0.59960  0.38580  1.0000
  N   N14       1.0  0.37530  0.09960  0.11420  1.0000
  N   N15       1.0  0.37530  0.40040  0.61420  1.0000
  N   N16       1.0  0.62470  0.90040  0.88580  1.0000
  N   N17       1.0  0.39200  0.49180  0.12660  1.0000
  N   N18       1.0  0.60800  0.99180  0.37340  1.0000
  N   N19       1.0  0.60800  0.50820  0.87340  1.0000
  N   N20       1.0  0.39200  0.00820  0.62660  1.0000
  H   H1        1.0  0.33110  0.53380  0.07590  1.0000
  H   H2        1.0  0.66890  0.03380  0.42410  1.0000
  H   H3        1.0  0.66890  0.46620  0.92410  1.0000
  H   H4        1.0  0.33110  0.96620  0.57590  1.0000
  H   H5        1.0  0.40120  0.40770  0.11400  1.0000
  H   H6        1.0  0.59880  0.90770  0.38600  1.0000
  H   H7        1.0  0.59880  0.59230  0.88600  1.0000
  H   H8        1.0  0.40120  0.09230  0.61400  1.0000
