data_image0
_chemical_formula_structural       Pb2O4C4O4C2O2C4O2C8H6
_chemical_formula_sum              "Pb2 O12 C18 H6"
_cell_length_a       7.076
_cell_length_b       9.7609
_cell_length_c       9.8297
_cell_angle_alpha    63.661
_cell_angle_beta     73.793
_cell_angle_gamma    71.727

_space_group_name_H-M_alt    "P 1"
_space_group_IT_number       1

loop_
  _space_group_symop_operation_xyz
  'x, y, z'

loop_
  _atom_site_type_symbol
  _atom_site_label
  _atom_site_symmetry_multiplicity
  _atom_site_fract_x
  _atom_site_fract_y
  _atom_site_fract_z
  _atom_site_occupancy
  Pb  Pb1       1.0  0.47325  0.35758  0.90551  1.0000
  Pb  Pb2       1.0  0.52675  0.64242  0.09449  1.0000
  O   O1        1.0  0.28550  0.58170  0.01820  1.0000
  O   O2        1.0  0.71450  0.41830  0.98180  1.0000
  O   O3        1.0  0.12710  0.38590  0.13420  1.0000
  O   O4        1.0  0.87290  0.61410  0.86580  1.0000
  C   C1        1.0  0.90400  0.77680  0.10150  1.0000
  C   C2        1.0  0.09600  0.22320  0.89850  1.0000
  C   C3        1.0  0.13900  0.51970  0.10920  1.0000
  C   C4        1.0  0.86100  0.48030  0.89080  1.0000
  O   O5        1.0  0.52240  0.11230  0.14630  1.0000
  O   O6        1.0  0.47760  0.88770  0.85370  1.0000
  O   O7        1.0  0.68400  0.40940  0.63770  1.0000
  O   O8        1.0  0.31600  0.59060  0.36230  1.0000
  C   C5        1.0  0.74310  0.86290  0.17060  1.0000
  C   C6        1.0  0.25690  0.13710  0.82940  1.0000
  O   O9        1.0  0.72230  0.09320  0.93830  1.0000
  O   O10       1.0  0.27770  0.90680  0.06170  1.0000
  C   C7        1.0  0.73100  0.63380  0.40750  1.0000
  C   C8        1.0  0.26900  0.36620  0.59250  1.0000
  C   C9        1.0  0.65760  0.03470  0.07890  1.0000
  C   C10       1.0  0.34240  0.96530  0.92110  1.0000
  O   O11       1.0  0.54080  0.64230  0.64500  1.0000
  O   O12       1.0  0.45920  0.35770  0.35500  1.0000
  C   C11       1.0  0.88330  0.54600  0.33490  1.0000
  C   C12       1.0  0.11670  0.45400  0.66510  1.0000
  C   C13       1.0  0.97200  0.61680  0.18360  1.0000
  C   C14       1.0  0.02800  0.38320  0.81640  1.0000
  C   C15       1.0  0.64320  0.55680  0.57580  1.0000
  C   C16       1.0  0.35680  0.44320  0.42420  1.0000
  C   C17       1.0  0.66210  0.79070  0.32430  1.0000
  C   C18       1.0  0.33790  0.20930  0.67570  1.0000
  H   H1        1.0  0.96100  0.83100  0.99500  1.0000
  H   H2        1.0  0.03900  0.16900  0.00500  1.0000
  H   H3        1.0  0.57400  0.85400  0.35600  1.0000
  H   H4        1.0  0.42600  0.14600  0.64400  1.0000
  H   H5        1.0  0.91900  0.45800  0.38300  1.0000
  H   H6        1.0  0.08100  0.54200  0.61700  1.0000
