data_image0
_chemical_formula_structural       Gd4Zn4O64C12H4C4H4C20H4C4H4C20H4C4H4C12H4C4H12C4H12N4
_chemical_formula_sum              "Gd4 Zn4 O64 C84 H52 N4"
_cell_length_a       18.0337
_cell_length_b       12.992
_cell_length_c       14.9037
_cell_angle_alpha    90
_cell_angle_beta     113.305
_cell_angle_gamma    90

_space_group_name_H-M_alt    "P 1"
_space_group_IT_number       1

loop_
  _space_group_symop_operation_xyz
  'x, y, z'

loop_
  _atom_site_type_symbol
  _atom_site_label
  _atom_site_symmetry_multiplicity
  _atom_site_fract_x
  _atom_site_fract_y
  _atom_site_fract_z
  _atom_site_occupancy
  Gd  Gd1       1.0  0.12182  0.02476  0.04789  1.0000
  Gd  Gd2       1.0  0.87818  0.52476  0.45211  1.0000
  Gd  Gd3       1.0  0.87818  0.97524  0.95211  1.0000
  Gd  Gd4       1.0  0.12182  0.47524  0.54789  1.0000
  Zn  Zn1       1.0  0.35806  0.90976  0.14150  1.0000
  Zn  Zn2       1.0  0.64194  0.40976  0.35850  1.0000
  Zn  Zn3       1.0  0.64194  0.09024  0.85850  1.0000
  Zn  Zn4       1.0  0.35806  0.59024  0.64150  1.0000
  O   O1        1.0  0.31509  0.61292  0.49931  1.0000
  O   O2        1.0  0.68491  0.11292  0.00069  1.0000
  O   O3        1.0  0.68491  0.38708  0.50069  1.0000
  O   O4        1.0  0.31509  0.88708  0.99931  1.0000
  O   O5        1.0  0.20519  0.51436  0.46314  1.0000
  O   O6        1.0  0.79481  0.01436  0.03686  1.0000
  O   O7        1.0  0.79481  0.48564  0.53686  1.0000
  O   O8        1.0  0.20519  0.98564  0.96314  1.0000
  O   O9        1.0  0.31297  0.81816  0.21227  1.0000
  O   O10       1.0  0.68703  0.31816  0.28773  1.0000
  O   O11       1.0  0.68703  0.18184  0.78773  1.0000
  O   O12       1.0  0.31297  0.68184  0.71227  1.0000
  O   O13       1.0  0.18693  0.84965  0.10427  1.0000
  O   O14       1.0  0.81307  0.34965  0.39573  1.0000
  O   O15       1.0  0.81307  0.15035  0.89573  1.0000
  O   O16       1.0  0.18693  0.65035  0.60427  1.0000
  O   O17       1.0  0.91638  0.46138  0.32875  1.0000
  O   O18       1.0  0.08362  0.96138  0.17125  1.0000
  O   O19       1.0  0.08362  0.53862  0.67125  1.0000
  O   O20       1.0  0.91638  0.03862  0.82875  1.0000
  O   O21       1.0  0.04652  0.41019  0.38456  1.0000
  O   O22       1.0  0.95348  0.91019  0.11544  1.0000
  O   O23       1.0  0.95348  0.58981  0.61544  1.0000
  O   O24       1.0  0.04652  0.08981  0.88456  1.0000
  O   O25       1.0  0.09008  0.17534  0.12873  1.0000
  O   O26       1.0  0.90992  0.67534  0.37127  1.0000
  O   O27       1.0  0.90992  0.82466  0.87127  1.0000
  O   O28       1.0  0.09008  0.32466  0.62873  1.0000
  O   O29       1.0  0.97631  0.10301  0.03147  1.0000
  O   O30       1.0  0.02369  0.60301  0.46853  1.0000
  O   O31       1.0  0.02369  0.89699  0.96853  1.0000
  O   O32       1.0  0.97631  0.39699  0.53147  1.0000
  O   O33       1.0  0.24296  0.05328  0.18741  1.0000
  O   O34       1.0  0.75704  0.55328  0.31259  1.0000
  O   O35       1.0  0.75704  0.94672  0.81259  1.0000
  O   O36       1.0  0.24296  0.44672  0.68741  1.0000
  O   O37       1.0  0.36808  0.05092  0.18960  1.0000
  O   O38       1.0  0.63192  0.55092  0.31040  1.0000
  O   O39       1.0  0.63192  0.94908  0.81040  1.0000
  O   O40       1.0  0.36808  0.44908  0.68960  1.0000
  O   O41       1.0  0.53483  0.34600  0.31336  1.0000
  O   O42       1.0  0.46517  0.84600  0.18664  1.0000
  O   O43       1.0  0.46517  0.65400  0.68664  1.0000
  O   O44       1.0  0.53483  0.15400  0.81336  1.0000
  O   O45       1.0  0.47713  0.48630  0.34400  1.0000
  O   O46       1.0  0.52287  0.98630  0.15600  1.0000
  O   O47       1.0  0.52287  0.51370  0.65600  1.0000
  O   O48       1.0  0.47713  0.01370  0.84400  1.0000
  O   O49       1.0  0.18471  0.18410  0.02426  1.0000
  O   O50       1.0  0.81529  0.68410  0.47574  1.0000
  O   O51       1.0  0.81529  0.81590  0.97574  1.0000
  O   O52       1.0  0.18471  0.31590  0.52426  1.0000
  O   O53       1.0  0.25520  0.69136  0.31431  1.0000
  O   O54       1.0  0.74480  0.19136  0.18569  1.0000
  O   O55       1.0  0.74480  0.30864  0.68569  1.0000
  O   O56       1.0  0.25520  0.80864  0.81431  1.0000
  O   O57       1.0  0.00911  0.29355  0.21552  1.0000
  O   O58       1.0  0.99089  0.79355  0.28448  1.0000
  O   O59       1.0  0.99089  0.70645  0.78448  1.0000
  O   O60       1.0  0.00911  0.20645  0.71552  1.0000
  O   O61       1.0  0.40050  0.23773  0.26338  1.0000
  O   O62       1.0  0.59950  0.73773  0.23662  1.0000
  O   O63       1.0  0.59950  0.76227  0.73662  1.0000
  O   O64       1.0  0.40050  0.26227  0.76338  1.0000
  C   C1        1.0  0.24770  0.57770  0.44130  1.0000
  C   C2        1.0  0.75230  0.07770  0.05870  1.0000
  C   C3        1.0  0.75230  0.42230  0.55870  1.0000
  C   C4        1.0  0.24770  0.92230  0.94130  1.0000
  C   C5        1.0  0.21450  0.61440  0.33870  1.0000
  C   C6        1.0  0.78550  0.11440  0.16130  1.0000
  C   C7        1.0  0.78550  0.38560  0.66130  1.0000
  C   C8        1.0  0.21450  0.88560  0.83870  1.0000
  C   C9        1.0  0.14440  0.59270  0.26260  1.0000
  C   C10       1.0  0.85560  0.09270  0.23740  1.0000
  C   C11       1.0  0.85560  0.40730  0.73740  1.0000
  C   C12       1.0  0.14440  0.90730  0.76260  1.0000
  H   H1        1.0  0.10610  0.54170  0.26070  1.0000
  H   H2        1.0  0.89390  0.04170  0.23930  1.0000
  H   H3        1.0  0.89390  0.45830  0.73930  1.0000
  H   H4        1.0  0.10610  0.95830  0.76070  1.0000
  C   C13       1.0  0.13930  0.66140  0.18590  1.0000
  C   C14       1.0  0.86070  0.16140  0.31410  1.0000
  C   C15       1.0  0.86070  0.33860  0.81410  1.0000
  C   C16       1.0  0.13930  0.83860  0.68590  1.0000
  H   H5        1.0  0.09670  0.66570  0.12300  1.0000
  H   H6        1.0  0.90330  0.16570  0.37700  1.0000
  H   H7        1.0  0.90330  0.33430  0.87700  1.0000
  H   H8        1.0  0.09670  0.83430  0.62300  1.0000
  C   C17       1.0  0.20740  0.71960  0.22070  1.0000
  C   C18       1.0  0.79260  0.21960  0.27930  1.0000
  C   C19       1.0  0.79260  0.28040  0.77930  1.0000
  C   C20       1.0  0.20740  0.78040  0.72070  1.0000
  C   C21       1.0  0.23720  0.80350  0.17560  1.0000
  C   C22       1.0  0.76280  0.30350  0.32440  1.0000
  C   C23       1.0  0.76280  0.19650  0.82440  1.0000
  C   C24       1.0  0.23720  0.69650  0.67560  1.0000
  C   C25       1.0  0.97480  0.41310  0.32270  1.0000
  C   C26       1.0  0.02520  0.91310  0.17730  1.0000
  C   C27       1.0  0.02520  0.58690  0.67730  1.0000
  C   C28       1.0  0.97480  0.08690  0.82270  1.0000
  C   C29       1.0  0.95250  0.35430  0.23010  1.0000
  C   C30       1.0  0.04750  0.85430  0.26990  1.0000
  C   C31       1.0  0.04750  0.64570  0.76990  1.0000
  C   C32       1.0  0.95250  0.14570  0.73010  1.0000
  C   C33       1.0  0.87960  0.34400  0.15440  1.0000
  C   C34       1.0  0.12040  0.84400  0.34560  1.0000
  C   C35       1.0  0.12040  0.65600  0.84560  1.0000
  C   C36       1.0  0.87960  0.15600  0.65440  1.0000
  H   H9        1.0  0.83100  0.37830  0.14690  1.0000
  H   H10       1.0  0.16900  0.87830  0.35310  1.0000
  H   H11       1.0  0.16900  0.62170  0.85310  1.0000
  H   H12       1.0  0.83100  0.12170  0.64690  1.0000
  C   C37       1.0  0.89010  0.27240  0.08880  1.0000
  C   C38       1.0  0.10990  0.77240  0.41120  1.0000
  C   C39       1.0  0.10990  0.72760  0.91120  1.0000
  C   C40       1.0  0.89010  0.22760  0.58880  1.0000
  H   H13       1.0  0.84990  0.24940  0.02870  1.0000
  H   H14       1.0  0.15010  0.74940  0.47130  1.0000
  H   H15       1.0  0.15010  0.75060  0.97130  1.0000
  H   H16       1.0  0.84990  0.25060  0.52870  1.0000
  C   C41       1.0  0.96850  0.24310  0.12850  1.0000
  C   C42       1.0  0.03150  0.74310  0.37150  1.0000
  C   C43       1.0  0.03150  0.75690  0.87150  1.0000
  C   C44       1.0  0.96850  0.25690  0.62850  1.0000
  C   C45       1.0  0.01490  0.16980  0.09520  1.0000
  C   C46       1.0  0.98510  0.66980  0.40480  1.0000
  C   C47       1.0  0.98510  0.83020  0.90480  1.0000
  C   C48       1.0  0.01490  0.33020  0.59520  1.0000
  C   C49       1.0  0.30960  0.09380  0.20290  1.0000
  C   C50       1.0  0.69040  0.59380  0.29710  1.0000
  C   C51       1.0  0.69040  0.90620  0.79710  1.0000
  C   C52       1.0  0.30960  0.40620  0.70290  1.0000
  C   C53       1.0  0.32400  0.20060  0.23880  1.0000
  C   C54       1.0  0.67600  0.70060  0.26120  1.0000
  C   C55       1.0  0.67600  0.79940  0.76120  1.0000
  C   C56       1.0  0.32400  0.29940  0.73880  1.0000
  C   C57       1.0  0.27490  0.27560  0.24690  1.0000
  C   C58       1.0  0.72510  0.77560  0.25310  1.0000
  C   C59       1.0  0.72510  0.72440  0.75310  1.0000
  C   C60       1.0  0.27490  0.22440  0.74690  1.0000
  H   H17       1.0  0.21910  0.26930  0.23400  1.0000
  H   H18       1.0  0.78090  0.76930  0.26600  1.0000
  H   H19       1.0  0.78090  0.73070  0.76600  1.0000
  H   H20       1.0  0.21910  0.23070  0.73400  1.0000
  C   C61       1.0  0.32320  0.36550  0.27840  1.0000
  C   C62       1.0  0.67680  0.86550  0.22160  1.0000
  C   C63       1.0  0.67680  0.63450  0.72160  1.0000
  C   C64       1.0  0.32320  0.13450  0.77840  1.0000
  H   H21       1.0  0.30590  0.43120  0.29050  1.0000
  H   H22       1.0  0.69410  0.93120  0.20950  1.0000
  H   H23       1.0  0.69410  0.56880  0.70950  1.0000
  H   H24       1.0  0.30590  0.06880  0.79050  1.0000
  C   C65       1.0  0.39920  0.33890  0.28790  1.0000
  C   C66       1.0  0.60080  0.83890  0.21210  1.0000
  C   C67       1.0  0.60080  0.66110  0.71210  1.0000
  C   C68       1.0  0.39920  0.16110  0.78790  1.0000
  C   C69       1.0  0.47620  0.39620  0.31770  1.0000
  C   C70       1.0  0.52380  0.89620  0.18230  1.0000
  C   C71       1.0  0.52380  0.60380  0.68230  1.0000
  C   C72       1.0  0.47620  0.10380  0.81770  1.0000
  C   C73       1.0  0.17310  0.23360  0.95010  1.0000
  C   C74       1.0  0.82690  0.73360  0.54990  1.0000
  C   C75       1.0  0.82690  0.76640  0.04990  1.0000
  C   C76       1.0  0.17310  0.26640  0.45010  1.0000
  H   H25       1.0  0.17110  0.19640  0.89430  1.0000
  H   H26       1.0  0.82890  0.69640  0.60570  1.0000
  H   H27       1.0  0.82890  0.80360  0.10570  1.0000
  H   H28       1.0  0.17110  0.30360  0.39430  1.0000
  C   C77       1.0  0.15530  0.39320  0.01940  1.0000
  C   C78       1.0  0.84470  0.89320  0.48060  1.0000
  C   C79       1.0  0.84470  0.60680  0.98060  1.0000
  C   C80       1.0  0.15530  0.10680  0.51940  1.0000
  H   H29       1.0  0.14450  0.34700  0.06480  1.0000
  H   H30       1.0  0.85550  0.84700  0.43520  1.0000
  H   H31       1.0  0.85550  0.65300  0.93520  1.0000
  H   H32       1.0  0.14450  0.15300  0.56480  1.0000
  H   H33       1.0  0.11060  0.44200  0.99160  1.0000
  H   H34       1.0  0.88940  0.94200  0.50840  1.0000
  H   H35       1.0  0.88940  0.55800  0.00840  1.0000
  H   H36       1.0  0.11060  0.05800  0.49160  1.0000
  H   H37       1.0  0.20550  0.43110  0.05450  1.0000
  H   H38       1.0  0.79450  0.93110  0.44550  1.0000
  H   H39       1.0  0.79450  0.56890  0.94550  1.0000
  H   H40       1.0  0.20550  0.06890  0.55450  1.0000
  C   C81       1.0  0.15170  0.38760  0.85250  1.0000
  C   C82       1.0  0.84830  0.88760  0.64750  1.0000
  C   C83       1.0  0.84830  0.61240  0.14750  1.0000
  C   C84       1.0  0.15170  0.11240  0.35250  1.0000
  H   H41       1.0  0.19610  0.43640  0.86500  1.0000
  H   H42       1.0  0.80390  0.93640  0.63500  1.0000
  H   H43       1.0  0.80390  0.56360  0.13500  1.0000
  H   H44       1.0  0.19610  0.06360  0.36500  1.0000
  H   H45       1.0  0.10040  0.42510  0.83000  1.0000
  H   H46       1.0  0.89960  0.92510  0.67000  1.0000
  H   H47       1.0  0.89960  0.57490  0.17000  1.0000
  H   H48       1.0  0.10040  0.07490  0.33000  1.0000
  H   H49       1.0  0.15070  0.33840  0.80220  1.0000
  H   H50       1.0  0.84930  0.83840  0.69780  1.0000
  H   H51       1.0  0.84930  0.66160  0.19780  1.0000
  H   H52       1.0  0.15070  0.16160  0.30220  1.0000
  N   N1        1.0  0.16330  0.33310  0.94130  1.0000
  N   N2        1.0  0.83670  0.83310  0.55870  1.0000
  N   N3        1.0  0.83670  0.66690  0.05870  1.0000
  N   N4        1.0  0.16330  0.16690  0.44130  1.0000
