data_image0
_chemical_formula_structural       NiN2O4C6H6C2H2N2C2O2H2C16H6O4H2C14H2C4H4C4H4C2H4C2H2C4O8H2
_chemical_formula_sum              "Ni1 N4 O18 C56 H36"
_cell_length_a       7.7686
_cell_length_b       13.6512
_cell_length_c       19.8766
_cell_angle_alpha    99.25
_cell_angle_beta     94.563
_cell_angle_gamma    97.512

_space_group_name_H-M_alt    "P 1"
_space_group_IT_number       1

loop_
  _space_group_symop_operation_xyz
  'x, y, z'

loop_
  _atom_site_type_symbol
  _atom_site_label
  _atom_site_symmetry_multiplicity
  _atom_site_fract_x
  _atom_site_fract_y
  _atom_site_fract_z
  _atom_site_occupancy
  Ni  Ni1       1.0  0.00000  0.50000  0.50000  1.0000
  N   N1        1.0  0.03790  0.65300  0.53510  1.0000
  N   N2        1.0  0.96210  0.34700  0.46490  1.0000
  O   O1        1.0  0.01420  0.53550  0.40020  1.0000
  O   O2        1.0  0.98580  0.46450  0.59980  1.0000
  O   O3        1.0  0.26680  0.50450  0.52052  1.0000
  O   O4        1.0  0.73320  0.49550  0.47948  1.0000
  C   C1        1.0  0.11370  0.70200  0.59810  1.0000
  C   C2        1.0  0.88630  0.29800  0.40190  1.0000
  C   C3        1.0  0.99980  0.72400  0.50170  1.0000
  C   C4        1.0  0.00020  0.27600  0.49830  1.0000
  C   C5        1.0  0.15030  0.55530  0.37270  1.0000
  C   C6        1.0  0.84970  0.44470  0.62730  1.0000
  H   H1        1.0  0.28040  0.45330  0.53560  1.0000
  H   H2        1.0  0.71960  0.54670  0.46440  1.0000
  H   H3        1.0  0.27890  0.50160  0.47960  1.0000
  H   H4        1.0  0.72110  0.49840  0.52040  1.0000
  H   H5        1.0  0.15490  0.67070  0.63310  1.0000
  H   H6        1.0  0.84510  0.32930  0.36690  1.0000
  C   C7        1.0  0.12030  0.80140  0.60220  1.0000
  C   C8        1.0  0.87970  0.19860  0.39780  1.0000
  H   H7        1.0  0.94650  0.71260  0.45700  1.0000
  H   H8        1.0  0.05350  0.28740  0.54300  1.0000
  N   N3        1.0  0.04760  0.81600  0.54040  1.0000
  N   N4        1.0  0.95240  0.18400  0.45960  1.0000
  C   C9        1.0  0.13970  0.60830  0.31160  1.0000
  C   C10       1.0  0.86030  0.39170  0.68840  1.0000
  O   O5        1.0  0.29890  0.53680  0.39220  1.0000
  O   O6        1.0  0.70110  0.46320  0.60780  1.0000
  H   H9        1.0  0.16530  0.85070  0.63970  1.0000
  H   H10       1.0  0.83470  0.14930  0.36030  1.0000
  C   C11       1.0  0.02380  0.90960  0.51980  1.0000
  C   C12       1.0  0.97620  0.09040  0.48020  1.0000
  C   C13       1.0  0.99700  0.58680  0.26100  1.0000
  C   C14       1.0  0.00300  0.41320  0.73900  1.0000
  C   C15       1.0  0.27640  0.68140  0.30510  1.0000
  C   C16       1.0  0.72360  0.31860  0.69490  1.0000
  C   C17       1.0  0.98600  0.98760  0.56740  1.0000
  C   C18       1.0  0.01400  0.01240  0.43260  1.0000
  C   C19       1.0  0.03700  0.92170  0.45230  1.0000
  C   C20       1.0  0.96300  0.07830  0.54770  1.0000
  C   C21       1.0  0.84340  0.50690  0.26030  1.0000
  C   C22       1.0  0.15660  0.49310  0.73970  1.0000
  C   C23       1.0  0.99980  0.63900  0.20670  1.0000
  C   C24       1.0  0.00020  0.36100  0.79330  1.0000
  C   C25       1.0  0.27990  0.73420  0.25030  1.0000
  C   C26       1.0  0.72010  0.26580  0.74970  1.0000
  H   H11       1.0  0.37050  0.69600  0.33890  1.0000
  H   H12       1.0  0.62950  0.30400  0.66110  1.0000
  H   H13       1.0  0.97600  0.97910  0.61250  1.0000
  H   H14       1.0  0.02400  0.02090  0.38750  1.0000
  H   H15       1.0  0.06110  0.86900  0.42030  1.0000
  H   H16       1.0  0.93890  0.13100  0.57970  1.0000
  O   O7        1.0  0.86750  0.41780  0.25130  1.0000
  O   O8        1.0  0.13250  0.58220  0.74870  1.0000
  O   O9        1.0  0.69800  0.53590  0.26560  1.0000
  O   O10       1.0  0.30200  0.46410  0.73440  1.0000
  H   H17       1.0  0.90430  0.62490  0.17360  1.0000
  H   H18       1.0  0.09570  0.37510  0.82640  1.0000
  C   C27       1.0  0.13640  0.71100  0.19880  1.0000
  C   C28       1.0  0.86360  0.28900  0.80120  1.0000
  C   C29       1.0  0.43050  0.81240  0.24950  1.0000
  C   C30       1.0  0.56950  0.18760  0.75050  1.0000
  C   C31       1.0  0.12720  0.75750  0.13300  1.0000
  C   C32       1.0  0.87280  0.24250  0.86700  1.0000
  C   C33       1.0  0.41060  0.90450  0.23070  1.0000
  C   C34       1.0  0.58940  0.09550  0.76930  1.0000
  C   C35       1.0  0.60050  0.79450  0.26680  1.0000
  C   C36       1.0  0.39950  0.20550  0.73320  1.0000
  C   C37       1.0  0.25730  0.75590  0.09380  1.0000
  C   C38       1.0  0.74270  0.24410  0.90620  1.0000
  C   C39       1.0  0.98150  0.79690  0.11670  1.0000
  C   C40       1.0  0.01850  0.20310  0.88330  1.0000
  H   H19       1.0  0.29900  0.91920  0.22030  1.0000
  H   H20       1.0  0.70100  0.08080  0.77970  1.0000
  C   C41       1.0  0.55410  0.97470  0.22730  1.0000
  C   C42       1.0  0.44590  0.02530  0.77270  1.0000
  C   C43       1.0  0.74370  0.86620  0.26570  1.0000
  C   C44       1.0  0.25630  0.13380  0.73430  1.0000
  H   H21       1.0  0.61770  0.73340  0.27920  1.0000
  H   H22       1.0  0.38230  0.26660  0.72080  1.0000
  H   H23       1.0  0.35620  0.72890  0.10670  1.0000
  H   H24       1.0  0.64380  0.27110  0.89330  1.0000
  C   C45       1.0  0.24540  0.79490  0.03330  1.0000
  C   C46       1.0  0.75460  0.20510  0.96670  1.0000
  C   C47       1.0  0.96490  0.83560  0.05660  1.0000
  C   C48       1.0  0.03510  0.16440  0.94340  1.0000
  H   H25       1.0  0.89320  0.79800  0.14570  1.0000
  H   H26       1.0  0.10680  0.20200  0.85430  1.0000
  H   H27       1.0  0.53770  0.03470  0.21290  1.0000
  H   H28       1.0  0.46230  0.96530  0.78710  1.0000
  C   C49       1.0  0.72110  0.95690  0.24510  1.0000
  C   C50       1.0  0.27890  0.04310  0.75490  1.0000
  H   H29       1.0  0.85520  0.85370  0.27880  1.0000
  H   H30       1.0  0.14480  0.14630  0.72120  1.0000
  H   H31       1.0  0.33720  0.79500  0.00590  1.0000
  H   H32       1.0  0.66280  0.20500  0.99410  1.0000
  C   C51       1.0  0.09600  0.83360  0.01390  1.0000
  C   C52       1.0  0.90400  0.16640  0.98610  1.0000
  H   H33       1.0  0.86520  0.86280  0.04510  1.0000
  H   H34       1.0  0.13480  0.13720  0.95490  1.0000
  C   C53       1.0  0.87720  0.03300  0.24030  1.0000
  C   C54       1.0  0.12280  0.96700  0.75970  1.0000
  C   C55       1.0  0.07070  0.86880  0.94730  1.0000
  C   C56       1.0  0.92930  0.13120  0.05270  1.0000
  O   O11       1.0  0.84580  0.11360  0.21940  1.0000
  O   O12       1.0  0.15420  0.88640  0.78060  1.0000
  O   O13       1.0  0.02440  0.01560  0.25810  1.0000
  O   O14       1.0  0.97560  0.98440  0.74190  1.0000
  O   O15       1.0  0.93880  0.90130  0.92910  1.0000
  O   O16       1.0  0.06120  0.09870  0.07090  1.0000
  O   O17       1.0  0.20140  0.85950  0.91030  1.0000
  O   O18       1.0  0.79860  0.14050  0.08970  1.0000
  H   H35       1.0  0.17400  0.87030  0.87170  1.0000
  H   H36       1.0  0.82600  0.12970  0.12830  1.0000
