data_image0
_chemical_formula_structural       C2H2C2H2C2H2C2H2C6H2C2H2C2H2C2H2C2H2C2H2C2H2C2H2C6H2C2H2C2H2C2H2C4N8Cu4C12O32Fe2
_chemical_formula_sum              "C56 H32 N8 Cu4 O32 Fe2"
_cell_length_a       7.881
_cell_length_b       9.879
_cell_length_c       21.399
_cell_angle_alpha    80.536
_cell_angle_beta     88.69
_cell_angle_gamma    81.763

_space_group_name_H-M_alt    "P 1"
_space_group_IT_number       1

loop_
  _space_group_symop_operation_xyz
  'x, y, z'

loop_
  _atom_site_type_symbol
  _atom_site_label
  _atom_site_symmetry_multiplicity
  _atom_site_fract_x
  _atom_site_fract_y
  _atom_site_fract_z
  _atom_site_occupancy
  C   C1        1.0  0.17200  0.33430  0.49430  1.0000
  C   C2        1.0  0.82800  0.66570  0.50570  1.0000
  H   H1        1.0  0.15450  0.41140  0.51462  1.0000
  H   H2        1.0  0.84550  0.58860  0.48538  1.0000
  C   C3        1.0  0.16280  0.35390  0.42930  1.0000
  C   C4        1.0  0.83720  0.64610  0.57070  1.0000
  H   H3        1.0  0.13939  0.44248  0.40582  1.0000
  H   H4        1.0  0.86061  0.55752  0.59418  1.0000
  C   C5        1.0  0.18920  0.23940  0.40000  1.0000
  C   C6        1.0  0.81080  0.76060  0.60000  1.0000
  H   H5        1.0  0.18270  0.25006  0.35612  1.0000
  H   H6        1.0  0.81730  0.74994  0.64388  1.0000
  C   C7        1.0  0.22530  0.10870  0.43500  1.0000
  C   C8        1.0  0.77470  0.89130  0.56500  1.0000
  H   H7        1.0  0.24583  0.03092  0.41512  1.0000
  H   H8        1.0  0.75417  0.96908  0.58488  1.0000
  C   C9        1.0  0.23020  0.09570  0.50090  1.0000
  C   C10       1.0  0.76980  0.90430  0.49910  1.0000
  C   C11       1.0  0.26420  0.96200  0.54430  1.0000
  C   C12       1.0  0.73580  0.03800  0.45570  1.0000
  C   C13       1.0  0.28800  0.83320  0.52490  1.0000
  C   C14       1.0  0.71200  0.16680  0.47510  1.0000
  H   H9        1.0  0.28343  0.82672  0.48213  1.0000
  H   H10       1.0  0.71657  0.17328  0.51787  1.0000
  C   C15       1.0  0.31840  0.71510  0.56960  1.0000
  C   C16       1.0  0.68160  0.28490  0.43040  1.0000
  H   H11       1.0  0.33488  0.62816  0.55725  1.0000
  H   H12       1.0  0.66512  0.37184  0.44275  1.0000
  C   C17       1.0  0.32410  0.72680  0.63260  1.0000
  C   C18       1.0  0.67590  0.27320  0.36740  1.0000
  H   H13       1.0  0.34351  0.64849  0.66362  1.0000
  H   H14       1.0  0.65649  0.35151  0.33638  1.0000
  C   C19       1.0  0.30010  0.85840  0.64850  1.0000
  C   C20       1.0  0.69990  0.14160  0.35150  1.0000
  H   H15       1.0  0.30604  0.86756  0.69097  1.0000
  H   H16       1.0  0.69396  0.13244  0.30903  1.0000
  C   C21       1.0  0.01390  0.72130  0.78150  1.0000
  C   C22       1.0  0.98610  0.27870  0.21850  1.0000
  H   H17       1.0  0.99936  0.70436  0.74063  1.0000
  H   H18       1.0  0.00064  0.29564  0.25937  1.0000
  C   C23       1.0  0.97430  0.85620  0.79480  1.0000
  C   C24       1.0  0.02570  0.14380  0.20520  1.0000
  H   H19       1.0  0.93609  0.93010  0.76312  1.0000
  H   H20       1.0  0.06391  0.06990  0.23688  1.0000
  C   C25       1.0  0.99350  0.87570  0.85560  1.0000
  C   C26       1.0  0.00650  0.12430  0.14440  1.0000
  H   H21       1.0  0.96747  0.96447  0.86560  1.0000
  H   H22       1.0  0.03253  0.03553  0.13440  1.0000
  C   C27       1.0  0.05150  0.76510  0.90360  1.0000
  C   C28       1.0  0.94850  0.23490  0.09640  1.0000
  H   H23       1.0  0.06046  0.77900  0.94530  1.0000
  H   H24       1.0  0.93954  0.22100  0.05470  1.0000
  C   C29       1.0  0.09500  0.63500  0.88730  1.0000
  C   C30       1.0  0.90500  0.36500  0.11270  1.0000
  C   C31       1.0  0.17780  0.51680  0.93010  1.0000
  C   C32       1.0  0.82220  0.48320  0.06990  1.0000
  C   C33       1.0  0.22860  0.51100  0.99390  1.0000
  C   C34       1.0  0.77140  0.48900  0.00610  1.0000
  H   H25       1.0  0.20027  0.58882  0.01334  1.0000
  H   H26       1.0  0.79973  0.41118  0.98666  1.0000
  C   C35       1.0  0.31630  0.39610  0.02670  1.0000
  C   C36       1.0  0.68370  0.60390  0.97330  1.0000
  H   H27       1.0  0.35024  0.39426  0.06816  1.0000
  H   H28       1.0  0.64976  0.60574  0.93184  1.0000
  C   C37       1.0  0.35460  0.28280  0.99830  1.0000
  C   C38       1.0  0.64540  0.71720  0.00170  1.0000
  H   H29       1.0  0.41430  0.20156  0.02031  1.0000
  H   H30       1.0  0.58570  0.79844  0.97969  1.0000
  C   C39       1.0  0.30400  0.28910  0.93630  1.0000
  C   C40       1.0  0.69600  0.71090  0.06370  1.0000
  H   H31       1.0  0.33154  0.21125  0.91689  1.0000
  H   H32       1.0  0.66846  0.78875  0.08311  1.0000
  C   C41       1.0  0.16440  0.36540  0.69481  1.0000
  C   C42       1.0  0.83560  0.63460  0.30519  1.0000
  C   C43       1.0  0.21060  0.22830  0.74016  1.0000
  C   C44       1.0  0.78940  0.77170  0.25984  1.0000
  N   N1        1.0  0.20520  0.20830  0.52928  1.0000
  N   N2        1.0  0.79480  0.79170  0.47072  1.0000
  N   N3        1.0  0.26920  0.97180  0.60561  1.0000
  N   N4        1.0  0.73080  0.02820  0.39439  1.0000
  N   N5        1.0  0.07140  0.61870  0.82610  1.0000
  N   N6        1.0  0.92860  0.38130  0.17390  1.0000
  N   N7        1.0  0.21700  0.40330  0.90370  1.0000
  N   N8        1.0  0.78300  0.59670  0.09630  1.0000
  Cu  Cu1       1.0  0.22569  0.16680  0.62278  1.0000
  Cu  Cu2       1.0  0.77431  0.83320  0.37722  1.0000
  Cu  Cu3       1.0  0.15222  0.42726  0.81290  1.0000
  Cu  Cu4       1.0  0.84778  0.57274  0.18710  1.0000
  C   C45       1.0  0.50340  0.59390  0.80450  1.0000
  C   C46       1.0  0.49660  0.40610  0.19550  1.0000
  C   C47       1.0  0.62890  0.64900  0.75510  1.0000
  C   C48       1.0  0.37110  0.35100  0.24490  1.0000
  C   C49       1.0  0.80370  0.22000  0.66360  1.0000
  C   C50       1.0  0.19630  0.78000  0.33640  1.0000
  C   C51       1.0  0.60350  0.24470  0.65710  1.0000
  C   C52       1.0  0.39650  0.75530  0.34290  1.0000
  C   C53       1.0  0.70120  0.15770  0.87350  1.0000
  C   C54       1.0  0.29880  0.84230  0.12650  1.0000
  C   C55       1.0  0.83950  0.25030  0.88090  1.0000
  C   C56       1.0  0.16050  0.74970  0.11910  1.0000
  O   O1        1.0  0.16620  0.36040  0.63674  1.0000
  O   O2        1.0  0.83380  0.63960  0.36326  1.0000
  O   O3        1.0  0.24240  0.12020  0.71663  1.0000
  O   O4        1.0  0.75760  0.87980  0.28337  1.0000
  O   O5        1.0  0.21410  0.23380  0.79796  1.0000
  O   O6        1.0  0.78590  0.76620  0.20204  1.0000
  O   O7        1.0  0.13090  0.47100  0.72026  1.0000
  O   O8        1.0  0.86910  0.52900  0.27974  1.0000
  O   O9        1.0  0.48150  0.46850  0.80479  1.0000
  O   O10       1.0  0.51850  0.53150  0.19521  1.0000
  O   O11       1.0  0.71890  0.55340  0.72921  1.0000
  O   O12       1.0  0.28110  0.44660  0.27079  1.0000
  O   O13       1.0  0.43230  0.66820  0.84060  1.0000
  O   O14       1.0  0.56770  0.33180  0.15940  1.0000
  O   O15       1.0  0.63750  0.77230  0.74380  1.0000
  O   O16       1.0  0.36250  0.22770  0.25620  1.0000
  O   O17       1.0  0.85640  0.26770  0.71111  1.0000
  O   O18       1.0  0.14360  0.73230  0.28889  1.0000
  O   O19       1.0  0.52760  0.31990  0.69577  1.0000
  O   O20       1.0  0.47240  0.68010  0.30423  1.0000
  O   O21       1.0  0.89270  0.16170  0.62658  1.0000
  O   O22       1.0  0.10730  0.83830  0.37342  1.0000
  O   O23       1.0  0.53500  0.19340  0.61827  1.0000
  O   O24       1.0  0.46500  0.80660  0.38173  1.0000
  O   O25       1.0  0.62710  0.18430  0.81971  1.0000
  O   O26       1.0  0.37290  0.81570  0.18029  1.0000
  O   O27       1.0  0.84720  0.34950  0.83538  1.0000
  O   O28       1.0  0.15280  0.65050  0.16462  1.0000
  O   O29       1.0  0.67260  0.06660  0.91610  1.0000
  O   O30       1.0  0.32740  0.93340  0.08390  1.0000
  O   O31       1.0  0.93110  0.22230  0.92849  1.0000
  O   O32       1.0  0.06890  0.77770  0.07151  1.0000
  Fe  Fe1       1.0  0.67720  0.36001  0.76331  1.0000
  Fe  Fe2       1.0  0.32280  0.63999  0.23669  1.0000
