data_image0
_chemical_formula_structural       U4O32C4H4C4H4C2H2C2H4C2H4C2H2C2H4C2H4C2H4C4H4C6H4C4H4C2H2C2H4C2H4C2H2C2H4C2H4C2H4C4H4C6H4C4H4C2H2C2H4C2H4C2H2C2H4C2H4C2H4C4H4C2
_chemical_formula_sum              "U4 O32 C84 H108"
_cell_length_a       9.9762
_cell_length_b       19.7489
_cell_length_c       21.4665
_cell_angle_alpha    104.36
_cell_angle_beta     91.041
_cell_angle_gamma    98.13

_space_group_name_H-M_alt    "P 1"
_space_group_IT_number       1

loop_
  _space_group_symop_operation_xyz
  'x, y, z'

loop_
  _atom_site_type_symbol
  _atom_site_label
  _atom_site_symmetry_multiplicity
  _atom_site_fract_x
  _atom_site_fract_y
  _atom_site_fract_z
  _atom_site_occupancy
  U   U1        1.0  0.66461  0.24616  0.89806  1.0000
  U   U2        1.0  0.33539  0.75384  0.10194  1.0000
  U   U3        1.0  0.31188  0.75670  0.54268  1.0000
  U   U4        1.0  0.68812  0.24330  0.45732  1.0000
  O   O1        1.0  0.71720  0.18911  0.82889  1.0000
  O   O2        1.0  0.28280  0.81089  0.17111  1.0000
  O   O3        1.0  0.61180  0.30321  0.96712  1.0000
  O   O4        1.0  0.38820  0.69679  0.03288  1.0000
  O   O5        1.0  0.25880  0.81730  0.50184  1.0000
  O   O6        1.0  0.74120  0.18270  0.49816  1.0000
  O   O7        1.0  0.36480  0.69698  0.58445  1.0000
  O   O8        1.0  0.63520  0.30302  0.41555  1.0000
  O   O9        1.0  0.68850  0.15585  0.95780  1.0000
  O   O10       1.0  0.31150  0.84415  0.04220  1.0000
  O   O11       1.0  0.49220  0.14749  0.90708  1.0000
  O   O12       1.0  0.50780  0.85251  0.09292  1.0000
  O   O13       1.0  0.46540  0.85792  0.61166  1.0000
  O   O14       1.0  0.53460  0.14208  0.38834  1.0000
  O   O15       1.0  0.25860  0.83430  0.64346  1.0000
  O   O16       1.0  0.74140  0.16570  0.35654  1.0000
  O   O17       1.0  0.44030  0.24764  0.84635  1.0000
  O   O18       1.0  0.55970  0.75236  0.15365  1.0000
  O   O19       1.0  0.60970  0.32321  0.83136  1.0000
  O   O20       1.0  0.39030  0.67679  0.16864  1.0000
  O   O21       1.0  0.85650  0.33735  0.89813  1.0000
  O   O22       1.0  0.14350  0.66265  0.10187  1.0000
  O   O23       1.0  0.89030  0.26408  0.95590  1.0000
  O   O24       1.0  0.10970  0.73592  0.04410  1.0000
  O   O25       1.0  0.07970  0.72579  0.57407  1.0000
  O   O26       1.0  0.92030  0.27421  0.42593  1.0000
  O   O27       1.0  0.13920  0.65784  0.48585  1.0000
  O   O28       1.0  0.86080  0.34216  0.51415  1.0000
  O   O29       1.0  0.37940  0.69247  0.43880  1.0000
  O   O30       1.0  0.62060  0.30753  0.56120  1.0000
  O   O31       1.0  0.54300  0.76476  0.50066  1.0000
  O   O32       1.0  0.45700  0.23524  0.49934  1.0000
  C   C1        1.0  0.56720  0.98998  0.87783  1.0000
  C   C2        1.0  0.43280  0.01002  0.12217  1.0000
  C   C3        1.0  0.47420  0.99184  0.82153  1.0000
  C   C4        1.0  0.52580  0.00816  0.17847  1.0000
  H   H1        1.0  0.49320  0.03890  0.81230  1.0000
  H   H2        1.0  0.50680  0.96110  0.18770  1.0000
  H   H3        1.0  0.37870  0.98460  0.83320  1.0000
  H   H4        1.0  0.62130  0.01540  0.16680  1.0000
  C   C5        1.0  0.49470  0.93390  0.76047  1.0000
  C   C6        1.0  0.50530  0.06610  0.23953  1.0000
  C   C7        1.0  0.46930  0.86177  0.77670  1.0000
  C   C8        1.0  0.53070  0.13823  0.22330  1.0000
  H   H5        1.0  0.37500  0.85290  0.78960  1.0000
  H   H6        1.0  0.62500  0.14710  0.21040  1.0000
  H   H7        1.0  0.48100  0.82400  0.73810  1.0000
  H   H8        1.0  0.51900  0.17600  0.26190  1.0000
  C   C9        1.0  0.56840  0.86004  0.83165  1.0000
  C   C10       1.0  0.43160  0.13996  0.16835  1.0000
  H   H9        1.0  0.55330  0.81250  0.84100  1.0000
  H   H10       1.0  0.44670  0.18750  0.15900  1.0000
  C   C11       1.0  0.54040  0.91783  0.89188  1.0000
  C   C12       1.0  0.45960  0.08217  0.10812  1.0000
  H   H11       1.0  0.44500  0.90810  0.90310  1.0000
  H   H12       1.0  0.55500  0.09190  0.09690  1.0000
  H   H13       1.0  0.59980  0.91700  0.92900  1.0000
  H   H14       1.0  0.40020  0.08300  0.07100  1.0000
  C   C13       1.0  0.71380  0.00410  0.85883  1.0000
  C   C14       1.0  0.28620  0.99590  0.14117  1.0000
  H   H15       1.0  0.73200  0.05130  0.84980  1.0000
  H   H16       1.0  0.26800  0.94870  0.15020  1.0000
  H   H17       1.0  0.77730  0.00330  0.89450  1.0000
  H   H18       1.0  0.22270  0.99670  0.10550  1.0000
  C   C15       1.0  0.73430  0.94670  0.79870  1.0000
  C   C16       1.0  0.26570  0.05330  0.20130  1.0000
  H   H19       1.0  0.82970  0.95640  0.78600  1.0000
  H   H20       1.0  0.17030  0.04360  0.21400  1.0000
  C   C17       1.0  0.64030  0.94601  0.74337  1.0000
  C   C18       1.0  0.35970  0.05399  0.25663  1.0000
  H   H21       1.0  0.65590  0.90810  0.70560  1.0000
  H   H22       1.0  0.34410  0.09190  0.29440  1.0000
  H   H23       1.0  0.65930  0.99170  0.73160  1.0000
  H   H24       1.0  0.34070  0.00830  0.26840  1.0000
  C   C19       1.0  0.71380  0.87670  0.81300  1.0000
  C   C20       1.0  0.28620  0.12330  0.18700  1.0000
  H   H25       1.0  0.77770  0.87660  0.84880  1.0000
  H   H26       1.0  0.22230  0.12340  0.15120  1.0000
  H   H27       1.0  0.73180  0.84000  0.77470  1.0000
  H   H28       1.0  0.26820  0.16000  0.22530  1.0000
  C   C21       1.0  0.53920  0.04493  0.93959  1.0000
  C   C22       1.0  0.46080  0.95507  0.06041  1.0000
  H   H29       1.0  0.44220  0.03570  0.94840  1.0000
  H   H30       1.0  0.55780  0.96430  0.05160  1.0000
  H   H31       1.0  0.59310  0.03880  0.97640  1.0000
  H   H32       1.0  0.40690  0.96120  0.02360  1.0000
  C   C23       1.0  0.57330  0.12030  0.93479  1.0000
  C   C24       1.0  0.42670  0.87970  0.06521  1.0000
  C   C25       1.0  0.39810  0.93910  0.70640  1.0000
  C   C26       1.0  0.60190  0.06090  0.29360  1.0000
  H   H33       1.0  0.31000  0.94840  0.72450  1.0000
  H   H34       1.0  0.69000  0.05160  0.27550  1.0000
  H   H35       1.0  0.43540  0.98000  0.68980  1.0000
  H   H36       1.0  0.56460  0.02000  0.31020  1.0000
  C   C27       1.0  0.37330  0.87350  0.65050  1.0000
  C   C28       1.0  0.62670  0.12650  0.34950  1.0000
  C   C29       1.0  0.32080  0.39238  0.84792  1.0000
  C   C30       1.0  0.67920  0.60762  0.15208  1.0000
  C   C31       1.0  0.21810  0.35447  0.88528  1.0000
  C   C32       1.0  0.78190  0.64553  0.11472  1.0000
  H   H37       1.0  0.26520  0.32640  0.90850  1.0000
  H   H38       1.0  0.73480  0.67360  0.09150  1.0000
  H   H39       1.0  0.14840  0.32160  0.85470  1.0000
  H   H40       1.0  0.85160  0.67840  0.14530  1.0000
  C   C33       1.0  0.14900  0.40841  0.93391  1.0000
  C   C34       1.0  0.85100  0.59159  0.06609  1.0000
  C   C35       1.0  0.07800  0.45230  0.89865  1.0000
  C   C36       1.0  0.92200  0.54770  0.10135  1.0000
  H   H41       1.0  0.03400  0.48690  0.93000  1.0000
  H   H42       1.0  0.96600  0.51310  0.07000  1.0000
  H   H43       1.0  0.00650  0.42110  0.86790  1.0000
  H   H44       1.0  0.99350  0.57890  0.13210  1.0000
  C   C37       1.0  0.17940  0.49147  0.86217  1.0000
  C   C38       1.0  0.82060  0.50853  0.13783  1.0000
  H   H45       1.0  0.13120  0.51950  0.83860  1.0000
  H   H46       1.0  0.86880  0.48050  0.16140  1.0000
  C   C39       1.0  0.24640  0.43692  0.81423  1.0000
  C   C40       1.0  0.75360  0.56308  0.18577  1.0000
  H   H47       1.0  0.17610  0.40550  0.78300  1.0000
  H   H48       1.0  0.82390  0.59450  0.21700  1.0000
  H   H49       1.0  0.31140  0.46170  0.79000  1.0000
  H   H50       1.0  0.68860  0.53830  0.21000  1.0000
  C   C41       1.0  0.43040  0.44261  0.89702  1.0000
  C   C42       1.0  0.56960  0.55739  0.10298  1.0000
  H   H51       1.0  0.47750  0.41480  0.92060  1.0000
  H   H52       1.0  0.52250  0.58520  0.07940  1.0000
  H   H53       1.0  0.49850  0.46700  0.87390  1.0000
  H   H54       1.0  0.50150  0.53300  0.12610  1.0000
  C   C43       1.0  0.36290  0.49721  0.94474  1.0000
  C   C44       1.0  0.63710  0.50279  0.05526  1.0000
  H   H55       1.0  0.43370  0.52950  0.97600  1.0000
  H   H56       1.0  0.56630  0.47050  0.02400  1.0000
  C   C45       1.0  0.26000  0.45852  0.98146  1.0000
  C   C46       1.0  0.74000  0.54148  0.01854  1.0000
  H   H57       1.0  0.21770  0.49350  0.01320  1.0000
  H   H58       1.0  0.78230  0.50650  0.98680  1.0000
  H   H59       1.0  0.30730  0.43090  0.00510  1.0000
  H   H60       1.0  0.69270  0.56910  0.99490  1.0000
  C   C47       1.0  0.28920  0.54065  0.90922  1.0000
  C   C48       1.0  0.71080  0.45935  0.09078  1.0000
  H   H61       1.0  0.24760  0.57630  0.94060  1.0000
  H   H62       1.0  0.75240  0.42370  0.05940  1.0000
  H   H63       1.0  0.35470  0.56580  0.88540  1.0000
  H   H64       1.0  0.64530  0.43420  0.11460  1.0000
  C   C49       1.0  0.38820  0.33914  0.79763  1.0000
  C   C50       1.0  0.61180  0.66086  0.20237  1.0000
  H   H65       1.0  0.31620  0.30350  0.77100  1.0000
  H   H66       1.0  0.68380  0.69650  0.22900  1.0000
  H   H67       1.0  0.43800  0.36470  0.76880  1.0000
  H   H68       1.0  0.56200  0.63530  0.23120  1.0000
  C   C51       1.0  0.48500  0.30124  0.82586  1.0000
  C   C52       1.0  0.51500  0.69876  0.17414  1.0000
  C   C53       1.0  0.05230  0.36924  0.97400  1.0000
  C   C54       1.0  0.94770  0.63076  0.02600  1.0000
  H   H69       1.0  0.10600  0.34120  0.99430  1.0000
  H   H70       1.0  0.89400  0.65880  0.00570  1.0000
  H   H71       1.0  0.02120  0.40540  0.00920  1.0000
  H   H72       1.0  0.97880  0.59460  0.99080  1.0000
  C   C55       1.0  0.92900  0.32077  0.93973  1.0000
  C   C56       1.0  0.07100  0.67923  0.06027  1.0000
  C   C57       1.0  0.83830  0.58775  0.47789  1.0000
  C   C58       1.0  0.16170  0.41225  0.52211  1.0000
  C   C59       1.0  0.76990  0.65004  0.46902  1.0000
  C   C60       1.0  0.23010  0.34996  0.53098  1.0000
  H   H73       1.0  0.72670  0.67040  0.50920  1.0000
  H   H74       1.0  0.27330  0.32960  0.49080  1.0000
  H   H75       1.0  0.83960  0.68730  0.46080  1.0000
  H   H76       1.0  0.16040  0.31270  0.53920  1.0000
  C   C61       1.0  0.66290  0.62695  0.41315  1.0000
  C   C62       1.0  0.33710  0.37305  0.58685  1.0000
  C   C63       1.0  0.55350  0.56991  0.42719  1.0000
  C   C64       1.0  0.44650  0.43009  0.57281  1.0000
  H   H77       1.0  0.48400  0.55380  0.39100  1.0000
  H   H78       1.0  0.51600  0.44620  0.60900  1.0000
  H   H79       1.0  0.50830  0.59000  0.46680  1.0000
  H   H80       1.0  0.49170  0.41000  0.53320  1.0000
  C   C65       1.0  0.62040  0.50671  0.43596  1.0000
  C   C66       1.0  0.37960  0.49329  0.56404  1.0000
  H   H81       1.0  0.54940  0.47030  0.44580  1.0000
  H   H82       1.0  0.45060  0.52970  0.55420  1.0000
  C   C67       1.0  0.72800  0.53078  0.49099  1.0000
  C   C68       1.0  0.27200  0.46922  0.50901  1.0000
  H   H83       1.0  0.76990  0.48980  0.49610  1.0000
  H   H84       1.0  0.23010  0.51020  0.50390  1.0000
  H   H85       1.0  0.68550  0.55020  0.53160  1.0000
  H   H86       1.0  0.31450  0.44980  0.46840  1.0000
  C   C69       1.0  0.90300  0.55546  0.41391  1.0000
  C   C70       1.0  0.09700  0.44454  0.58609  1.0000
  H   H87       1.0  0.97270  0.59150  0.40380  1.0000
  H   H88       1.0  0.02730  0.40850  0.59620  1.0000
  H   H89       1.0  0.94780  0.51530  0.41880  1.0000
  H   H90       1.0  0.05220  0.48470  0.58120  1.0000
  C   C71       1.0  0.79380  0.52993  0.35894  1.0000
  C   C72       1.0  0.20620  0.47007  0.64106  1.0000
  H   H91       1.0  0.83620  0.50900  0.31810  1.0000
  H   H92       1.0  0.16380  0.49100  0.68190  1.0000
  C   C73       1.0  0.73030  0.59327  0.35124  1.0000
  C   C74       1.0  0.26970  0.40673  0.64876  1.0000
  H   H93       1.0  0.66150  0.57800  0.31480  1.0000
  H   H94       1.0  0.33850  0.42200  0.68520  1.0000
  H   H95       1.0  0.80120  0.62890  0.34130  1.0000
  H   H96       1.0  0.19880  0.37110  0.65870  1.0000
  C   C75       1.0  0.68490  0.47431  0.37373  1.0000
  C   C76       1.0  0.31510  0.52569  0.62627  1.0000
  H   H97       1.0  0.61480  0.45800  0.33780  1.0000
  H   H98       1.0  0.38520  0.54200  0.66220  1.0000
  H   H99       1.0  0.72610  0.43300  0.37860  1.0000
  H   H100      1.0  0.27390  0.56700  0.62140  1.0000
  C   C77       1.0  0.94220  0.61205  0.53524  1.0000
  C   C78       1.0  0.05780  0.38795  0.46476  1.0000
  H   H101      1.0  0.89380  0.63000  0.57440  1.0000
  H   H102      1.0  0.10620  0.37000  0.42560  1.0000
  H   H103      1.0  0.98040  0.57020  0.54100  1.0000
  H   H104      1.0  0.01960  0.42980  0.45900  1.0000
  C   C79       1.0  0.05850  0.66837  0.53107  1.0000
  C   C80       1.0  0.94150  0.33163  0.46893  1.0000
  C   C81       1.0  0.60130  0.68982  0.40021  1.0000
  C   C82       1.0  0.39870  0.31018  0.59979  1.0000
  H   H105      1.0  0.67580  0.72850  0.39960  1.0000
  H   H106      1.0  0.32420  0.27150  0.60040  1.0000
  H   H107      1.0  0.55360  0.67480  0.35710  1.0000
  H   H108      1.0  0.44640  0.32520  0.64290  1.0000
  C   C83       1.0  0.50330  0.71801  0.44934  1.0000
  C   C84       1.0  0.49670  0.28199  0.55066  1.0000
