data_image0
_chemical_formula_structural       Zn8O8C8H8O24N8C8H8C8H8N8C8H8C32H8C8H8C8H8C24H8C8N8C16N8H8
_chemical_formula_sum              "Zn8 O32 C128 H72 N32"
_cell_length_a       18.9
_cell_length_b       24.784
_cell_length_c       10.058
_cell_angle_alpha    90
_cell_angle_beta     90
_cell_angle_gamma    90

_space_group_name_H-M_alt    "P 1"
_space_group_IT_number       1

loop_
  _space_group_symop_operation_xyz
  'x, y, z'

loop_
  _atom_site_type_symbol
  _atom_site_label
  _atom_site_symmetry_multiplicity
  _atom_site_fract_x
  _atom_site_fract_y
  _atom_site_fract_z
  _atom_site_occupancy
  Zn  Zn1       1.0  0.16319  0.90850  0.26537  1.0000
  Zn  Zn2       1.0  0.33681  0.59150  0.26537  1.0000
  Zn  Zn3       1.0  0.66319  0.09150  0.23463  1.0000
  Zn  Zn4       1.0  0.83681  0.40850  0.23463  1.0000
  Zn  Zn5       1.0  0.83681  0.09150  0.73463  1.0000
  Zn  Zn6       1.0  0.66319  0.40850  0.73463  1.0000
  Zn  Zn7       1.0  0.33681  0.90850  0.76537  1.0000
  Zn  Zn8       1.0  0.16319  0.59150  0.76537  1.0000
  O   O1        1.0  0.07526  0.86977  0.27701  1.0000
  O   O2        1.0  0.42474  0.63023  0.27701  1.0000
  O   O3        1.0  0.57526  0.13023  0.22299  1.0000
  O   O4        1.0  0.92474  0.36977  0.22299  1.0000
  O   O5        1.0  0.92474  0.13023  0.72299  1.0000
  O   O6        1.0  0.57526  0.36977  0.72299  1.0000
  O   O7        1.0  0.42474  0.86977  0.77701  1.0000
  O   O8        1.0  0.07526  0.63023  0.77701  1.0000
  C   C1        1.0  0.76082  0.64852  0.24380  1.0000
  C   C2        1.0  0.73918  0.85148  0.24380  1.0000
  C   C3        1.0  0.26082  0.35148  0.25620  1.0000
  C   C4        1.0  0.23918  0.14852  0.25620  1.0000
  C   C5        1.0  0.23918  0.35148  0.75620  1.0000
  C   C6        1.0  0.26082  0.14852  0.75620  1.0000
  C   C7        1.0  0.73918  0.64852  0.74380  1.0000
  C   C8        1.0  0.76082  0.85148  0.74380  1.0000
  H   H1        1.0  0.72560  0.66400  0.19160  1.0000
  H   H2        1.0  0.77440  0.83600  0.19160  1.0000
  H   H3        1.0  0.22560  0.33600  0.30840  1.0000
  H   H4        1.0  0.27440  0.16400  0.30840  1.0000
  H   H5        1.0  0.27440  0.33600  0.80840  1.0000
  H   H6        1.0  0.22560  0.16400  0.80840  1.0000
  H   H7        1.0  0.77440  0.66400  0.69160  1.0000
  H   H8        1.0  0.72560  0.83600  0.69160  1.0000
  O   O9        1.0  0.02548  0.92463  0.42708  1.0000
  O   O10       1.0  0.47452  0.57537  0.42708  1.0000
  O   O11       1.0  0.52548  0.07537  0.07292  1.0000
  O   O12       1.0  0.97452  0.42463  0.07292  1.0000
  O   O13       1.0  0.97452  0.07537  0.57292  1.0000
  O   O14       1.0  0.52548  0.42463  0.57292  1.0000
  O   O15       1.0  0.47452  0.92463  0.92708  1.0000
  O   O16       1.0  0.02548  0.57537  0.92708  1.0000
  O   O17       1.0  0.88576  0.48914  0.37430  1.0000
  O   O18       1.0  0.61424  0.01086  0.37430  1.0000
  O   O19       1.0  0.38576  0.51086  0.12570  1.0000
  O   O20       1.0  0.11424  0.98914  0.12570  1.0000
  O   O21       1.0  0.11424  0.51086  0.62570  1.0000
  O   O22       1.0  0.38576  0.98914  0.62570  1.0000
  O   O23       1.0  0.61424  0.48914  0.87430  1.0000
  O   O24       1.0  0.88576  0.01086  0.87430  1.0000
  O   O25       1.0  0.81061  0.48509  0.20658  1.0000
  O   O26       1.0  0.68939  0.01491  0.20658  1.0000
  O   O27       1.0  0.31061  0.51491  0.29342  1.0000
  O   O28       1.0  0.18939  0.98509  0.29342  1.0000
  O   O29       1.0  0.18939  0.51491  0.79342  1.0000
  O   O30       1.0  0.31061  0.98509  0.79342  1.0000
  O   O31       1.0  0.68939  0.48509  0.70658  1.0000
  O   O32       1.0  0.81061  0.01491  0.70658  1.0000
  N   N1        1.0  0.21279  0.88373  0.09970  1.0000
  N   N2        1.0  0.28721  0.61627  0.09970  1.0000
  N   N3        1.0  0.71279  0.11627  0.40030  1.0000
  N   N4        1.0  0.78721  0.38373  0.40030  1.0000
  N   N5        1.0  0.78721  0.11627  0.90030  1.0000
  N   N6        1.0  0.71279  0.38373  0.90030  1.0000
  N   N7        1.0  0.28721  0.88373  0.59970  1.0000
  N   N8        1.0  0.21279  0.61627  0.59970  1.0000
  C   C9        1.0  0.85465  0.81403  0.45510  1.0000
  C   C10       1.0  0.64535  0.68597  0.45510  1.0000
  C   C11       1.0  0.35465  0.18597  0.04490  1.0000
  C   C12       1.0  0.14535  0.31403  0.04490  1.0000
  C   C13       1.0  0.14535  0.18597  0.54490  1.0000
  C   C14       1.0  0.35465  0.31403  0.54490  1.0000
  C   C15       1.0  0.64535  0.81403  0.95510  1.0000
  C   C16       1.0  0.85465  0.68597  0.95510  1.0000
  H   H9        1.0  0.82010  0.81710  0.52050  1.0000
  H   H10       1.0  0.67990  0.68290  0.52050  1.0000
  H   H11       1.0  0.32010  0.18290  0.97950  1.0000
  H   H12       1.0  0.17990  0.31710  0.97950  1.0000
  H   H13       1.0  0.17990  0.18290  0.47950  1.0000
  H   H14       1.0  0.32010  0.31710  0.47950  1.0000
  H   H15       1.0  0.67990  0.81710  0.02050  1.0000
  H   H16       1.0  0.82010  0.68290  0.02050  1.0000
  C   C17       1.0  0.90126  0.76945  0.26260  1.0000
  C   C18       1.0  0.59874  0.73055  0.26260  1.0000
  C   C19       1.0  0.40126  0.23055  0.23740  1.0000
  C   C20       1.0  0.09874  0.26945  0.23740  1.0000
  C   C21       1.0  0.09874  0.23055  0.73740  1.0000
  C   C22       1.0  0.40126  0.26945  0.73740  1.0000
  C   C23       1.0  0.59874  0.76945  0.76260  1.0000
  C   C24       1.0  0.90126  0.73055  0.76260  1.0000
  H   H17       1.0  0.89850  0.74240  0.19870  1.0000
  H   H18       1.0  0.60150  0.75760  0.19870  1.0000
  H   H19       1.0  0.39850  0.25760  0.30130  1.0000
  H   H20       1.0  0.10150  0.24240  0.30130  1.0000
  H   H21       1.0  0.10150  0.25760  0.80130  1.0000
  H   H22       1.0  0.39850  0.24240  0.80130  1.0000
  H   H23       1.0  0.60150  0.74240  0.69870  1.0000
  H   H24       1.0  0.89850  0.75760  0.69870  1.0000
  N   N9        1.0  0.27740  0.88225  0.92090  1.0000
  N   N10       1.0  0.22260  0.61775  0.92090  1.0000
  N   N11       1.0  0.77740  0.11775  0.57910  1.0000
  N   N12       1.0  0.72260  0.38225  0.57910  1.0000
  N   N13       1.0  0.72260  0.11775  0.07910  1.0000
  N   N14       1.0  0.77740  0.38225  0.07910  1.0000
  N   N15       1.0  0.22260  0.88225  0.42090  1.0000
  N   N16       1.0  0.27740  0.61775  0.42090  1.0000
  C   C25       1.0  0.91245  0.84846  0.45750  1.0000
  C   C26       1.0  0.58755  0.65154  0.45750  1.0000
  C   C27       1.0  0.41245  0.15154  0.04250  1.0000
  C   C28       1.0  0.08755  0.34846  0.04250  1.0000
  C   C29       1.0  0.08755  0.15154  0.54250  1.0000
  C   C30       1.0  0.41245  0.34846  0.54250  1.0000
  C   C31       1.0  0.58755  0.84846  0.95750  1.0000
  C   C32       1.0  0.91245  0.65154  0.95750  1.0000
  H   H25       1.0  0.91640  0.87430  0.52420  1.0000
  H   H26       1.0  0.58360  0.62570  0.52420  1.0000
  H   H27       1.0  0.41640  0.12570  0.97580  1.0000
  H   H28       1.0  0.08360  0.37430  0.97580  1.0000
  H   H29       1.0  0.08360  0.12570  0.47580  1.0000
  H   H30       1.0  0.41640  0.37430  0.47580  1.0000
  H   H31       1.0  0.58360  0.87430  0.02420  1.0000
  H   H32       1.0  0.91640  0.62570  0.02420  1.0000
  C   C33       1.0  0.84728  0.77488  0.35630  1.0000
  C   C34       1.0  0.65272  0.72512  0.35630  1.0000
  C   C35       1.0  0.34728  0.22512  0.14370  1.0000
  C   C36       1.0  0.15272  0.27488  0.14370  1.0000
  C   C37       1.0  0.15272  0.22512  0.64370  1.0000
  C   C38       1.0  0.34728  0.27488  0.64370  1.0000
  C   C39       1.0  0.65272  0.77488  0.85630  1.0000
  C   C40       1.0  0.84728  0.72512  0.85630  1.0000
  C   C41       1.0  0.78310  0.73952  0.34870  1.0000
  C   C42       1.0  0.71690  0.76048  0.34870  1.0000
  C   C43       1.0  0.28310  0.26048  0.15130  1.0000
  C   C44       1.0  0.21690  0.23952  0.15130  1.0000
  C   C45       1.0  0.21690  0.26048  0.65130  1.0000
  C   C46       1.0  0.28310  0.23952  0.65130  1.0000
  C   C47       1.0  0.71690  0.73952  0.84870  1.0000
  C   C48       1.0  0.78310  0.76048  0.84870  1.0000
  C   C49       1.0  0.96445  0.84451  0.36070  1.0000
  C   C50       1.0  0.53555  0.65549  0.36070  1.0000
  C   C51       1.0  0.46445  0.15549  0.13930  1.0000
  C   C52       1.0  0.03555  0.34451  0.13930  1.0000
  C   C53       1.0  0.03555  0.15549  0.63930  1.0000
  C   C54       1.0  0.46445  0.34451  0.63930  1.0000
  C   C55       1.0  0.53555  0.84451  0.86070  1.0000
  C   C56       1.0  0.96445  0.65549  0.86070  1.0000
  C   C57       1.0  0.86595  0.60218  0.39720  1.0000
  C   C58       1.0  0.63405  0.89782  0.39720  1.0000
  C   C59       1.0  0.36595  0.39782  0.10280  1.0000
  C   C60       1.0  0.13405  0.10218  0.10280  1.0000
  C   C61       1.0  0.13405  0.39782  0.60280  1.0000
  C   C62       1.0  0.36595  0.10218  0.60280  1.0000
  C   C63       1.0  0.63405  0.60218  0.89720  1.0000
  C   C64       1.0  0.86595  0.89782  0.89720  1.0000
  H   H33       1.0  0.90130  0.58670  0.44900  1.0000
  H   H34       1.0  0.59870  0.91330  0.44900  1.0000
  H   H35       1.0  0.40130  0.41330  0.05100  1.0000
  H   H36       1.0  0.09870  0.08670  0.05100  1.0000
  H   H37       1.0  0.09870  0.41330  0.55100  1.0000
  H   H38       1.0  0.40130  0.08670  0.55100  1.0000
  H   H39       1.0  0.59870  0.58670  0.94900  1.0000
  H   H40       1.0  0.90130  0.91330  0.94900  1.0000
  C   C65       1.0  0.85097  0.65642  0.41060  1.0000
  C   C66       1.0  0.64903  0.84358  0.41060  1.0000
  C   C67       1.0  0.35097  0.34358  0.08940  1.0000
  C   C68       1.0  0.14903  0.15642  0.08940  1.0000
  C   C69       1.0  0.14903  0.34358  0.58940  1.0000
  C   C70       1.0  0.35097  0.15642  0.58940  1.0000
  C   C71       1.0  0.64903  0.65642  0.91060  1.0000
  C   C72       1.0  0.85097  0.84358  0.91060  1.0000
  H   H41       1.0  0.87680  0.67720  0.47030  1.0000
  H   H42       1.0  0.62320  0.82280  0.47030  1.0000
  H   H43       1.0  0.37680  0.32280  0.02970  1.0000
  H   H44       1.0  0.12320  0.17720  0.02970  1.0000
  H   H45       1.0  0.12320  0.32280  0.52970  1.0000
  H   H46       1.0  0.37680  0.17720  0.52970  1.0000
  H   H47       1.0  0.62320  0.67720  0.97030  1.0000
  H   H48       1.0  0.87680  0.82280  0.97030  1.0000
  C   C73       1.0  0.95884  0.80397  0.26410  1.0000
  C   C74       1.0  0.54116  0.69603  0.26410  1.0000
  C   C75       1.0  0.45884  0.19603  0.23590  1.0000
  C   C76       1.0  0.04116  0.30397  0.23590  1.0000
  C   C77       1.0  0.04116  0.19603  0.73590  1.0000
  C   C78       1.0  0.45884  0.30397  0.73590  1.0000
  C   C79       1.0  0.54116  0.80397  0.76410  1.0000
  C   C80       1.0  0.95884  0.69603  0.76410  1.0000
  H   H49       1.0  0.99420  0.80020  0.20040  1.0000
  H   H50       1.0  0.50580  0.69980  0.20040  1.0000
  H   H51       1.0  0.49420  0.19980  0.29960  1.0000
  H   H52       1.0  0.00580  0.30020  0.29960  1.0000
  H   H53       1.0  0.00580  0.19980  0.79960  1.0000
  H   H54       1.0  0.49420  0.30020  0.79960  1.0000
  H   H55       1.0  0.50580  0.80020  0.70040  1.0000
  H   H56       1.0  0.99420  0.69980  0.70040  1.0000
  C   C81       1.0  0.82873  0.57034  0.30720  1.0000
  C   C82       1.0  0.67127  0.92966  0.30720  1.0000
  C   C83       1.0  0.32873  0.42966  0.19280  1.0000
  C   C84       1.0  0.17127  0.07034  0.19280  1.0000
  C   C85       1.0  0.17127  0.42966  0.69280  1.0000
  C   C86       1.0  0.32873  0.07034  0.69280  1.0000
  C   C87       1.0  0.67127  0.57034  0.80720  1.0000
  C   C88       1.0  0.82873  0.92966  0.80720  1.0000
  C   C89       1.0  0.79749  0.68042  0.33560  1.0000
  C   C90       1.0  0.70251  0.81958  0.33560  1.0000
  C   C91       1.0  0.29749  0.31958  0.16440  1.0000
  C   C92       1.0  0.20251  0.18042  0.16440  1.0000
  C   C93       1.0  0.20251  0.31958  0.66440  1.0000
  C   C94       1.0  0.29749  0.18042  0.66440  1.0000
  C   C95       1.0  0.70251  0.68042  0.83560  1.0000
  C   C96       1.0  0.79749  0.81958  0.83560  1.0000
  C   C97       1.0  0.77632  0.59413  0.22970  1.0000
  C   C98       1.0  0.72368  0.90587  0.22970  1.0000
  C   C99       1.0  0.27632  0.40587  0.27030  1.0000
  C   C100      1.0  0.22368  0.09413  0.27030  1.0000
  C   C101      1.0  0.22368  0.40587  0.77030  1.0000
  C   C102      1.0  0.27632  0.09413  0.77030  1.0000
  C   C103      1.0  0.72368  0.59413  0.72970  1.0000
  C   C104      1.0  0.77632  0.90587  0.72970  1.0000
  H   H57       1.0  0.75160  0.57340  0.16810  1.0000
  H   H58       1.0  0.74840  0.92660  0.16810  1.0000
  H   H59       1.0  0.25160  0.42660  0.33190  1.0000
  H   H60       1.0  0.24840  0.07340  0.33190  1.0000
  H   H61       1.0  0.24840  0.42660  0.83190  1.0000
  H   H62       1.0  0.25160  0.07340  0.83190  1.0000
  H   H63       1.0  0.74840  0.57340  0.66810  1.0000
  H   H64       1.0  0.75160  0.92660  0.66810  1.0000
  C   C105      1.0  0.02626  0.88315  0.35730  1.0000
  C   C106      1.0  0.47374  0.61685  0.35730  1.0000
  C   C107      1.0  0.52626  0.11685  0.14270  1.0000
  C   C108      1.0  0.97374  0.38315  0.14270  1.0000
  C   C109      1.0  0.97374  0.11685  0.64270  1.0000
  C   C110      1.0  0.52626  0.38315  0.64270  1.0000
  C   C111      1.0  0.47374  0.88315  0.85730  1.0000
  C   C112      1.0  0.02626  0.61685  0.85730  1.0000
  N   N17       1.0  0.28103  0.83376  0.98130  1.0000
  N   N18       1.0  0.21897  0.66624  0.98130  1.0000
  N   N19       1.0  0.78103  0.16624  0.51870  1.0000
  N   N20       1.0  0.71897  0.33376  0.51870  1.0000
  N   N21       1.0  0.71897  0.16624  0.01870  1.0000
  N   N22       1.0  0.78103  0.33376  0.01870  1.0000
  N   N23       1.0  0.21897  0.83376  0.48130  1.0000
  N   N24       1.0  0.28103  0.66624  0.48130  1.0000
  C   C113      1.0  0.84414  0.51108  0.29620  1.0000
  C   C114      1.0  0.65586  0.98892  0.29620  1.0000
  C   C115      1.0  0.34414  0.48892  0.20380  1.0000
  C   C116      1.0  0.15586  0.01108  0.20380  1.0000
  C   C117      1.0  0.15586  0.48892  0.70380  1.0000
  C   C118      1.0  0.34414  0.01108  0.70380  1.0000
  C   C119      1.0  0.65586  0.51108  0.79620  1.0000
  C   C120      1.0  0.84414  0.98892  0.79620  1.0000
  C   C121      1.0  0.23441  0.91130  0.99540  1.0000
  C   C122      1.0  0.26559  0.58870  0.99540  1.0000
  C   C123      1.0  0.73441  0.08870  0.50460  1.0000
  C   C124      1.0  0.76559  0.41130  0.50460  1.0000
  C   C125      1.0  0.76559  0.08870  0.00460  1.0000
  C   C126      1.0  0.73441  0.41130  0.00460  1.0000
  C   C127      1.0  0.26559  0.91130  0.49540  1.0000
  C   C128      1.0  0.23441  0.58870  0.49540  1.0000
  N   N25       1.0  0.24250  0.83484  0.08780  1.0000
  N   N26       1.0  0.25750  0.66516  0.08780  1.0000
  N   N27       1.0  0.74250  0.16516  0.41220  1.0000
  N   N28       1.0  0.75750  0.33484  0.41220  1.0000
  N   N29       1.0  0.75750  0.16516  0.91220  1.0000
  N   N30       1.0  0.74250  0.33484  0.91220  1.0000
  N   N31       1.0  0.25750  0.83484  0.58780  1.0000
  N   N32       1.0  0.24250  0.66516  0.58780  1.0000
  H   H65       1.0  0.22140  0.94670  0.97500  1.0000
  H   H66       1.0  0.27860  0.55330  0.97500  1.0000
  H   H67       1.0  0.72140  0.05330  0.52500  1.0000
  H   H68       1.0  0.77860  0.44670  0.52500  1.0000
  H   H69       1.0  0.77860  0.05330  0.02500  1.0000
  H   H70       1.0  0.72140  0.44670  0.02500  1.0000
  H   H71       1.0  0.27860  0.94670  0.47500  1.0000
  H   H72       1.0  0.22140  0.55330  0.47500  1.0000
