data_image0
_chemical_formula_structural       Ni4Cl8O8C4H4
_chemical_formula_sum              "Ni4 Cl8 O8 C4 H4"
_cell_length_a       7.598
_cell_length_b       11.336
_cell_length_c       6.753
_cell_angle_alpha    90
_cell_angle_beta     107.68
_cell_angle_gamma    90

_space_group_name_H-M_alt    "P 1"
_space_group_IT_number       1

loop_
  _space_group_symop_operation_xyz
  'x, y, z'

loop_
  _atom_site_type_symbol
  _atom_site_label
  _atom_site_symmetry_multiplicity
  _atom_site_fract_x
  _atom_site_fract_y
  _atom_site_fract_z
  _atom_site_occupancy
  Ni  Ni1       1.0  0.00000  0.00000  0.00000  1.0000
  Ni  Ni2       1.0  0.00000  0.00000  0.50000  1.0000
  Ni  Ni3       1.0  0.50000  0.50000  0.00000  1.0000
  Ni  Ni4       1.0  0.50000  0.50000  0.50000  1.0000
  Cl  Cl1       1.0  0.77120  0.95681  0.17239  1.0000
  Cl  Cl2       1.0  0.22880  0.95681  0.32761  1.0000
  Cl  Cl3       1.0  0.27120  0.45681  0.17239  1.0000
  Cl  Cl4       1.0  0.72880  0.45681  0.32761  1.0000
  Cl  Cl5       1.0  0.22880  0.04319  0.82761  1.0000
  Cl  Cl6       1.0  0.77120  0.04319  0.67239  1.0000
  Cl  Cl7       1.0  0.72880  0.54319  0.82761  1.0000
  Cl  Cl8       1.0  0.27120  0.54319  0.67239  1.0000
  O   O1        1.0  0.00879  0.17315  0.08574  1.0000
  O   O2        1.0  0.99121  0.17315  0.41426  1.0000
  O   O3        1.0  0.50879  0.67315  0.08574  1.0000
  O   O4        1.0  0.49121  0.67315  0.41426  1.0000
  O   O5        1.0  0.99121  0.82685  0.91426  1.0000
  O   O6        1.0  0.00879  0.82685  0.58574  1.0000
  O   O7        1.0  0.49121  0.32685  0.91426  1.0000
  O   O8        1.0  0.50879  0.32685  0.58574  1.0000
  C   C1        1.0  0.00000  0.22251  0.25000  1.0000
  C   C2        1.0  0.50000  0.72251  0.25000  1.0000
  C   C3        1.0  0.00000  0.77749  0.75000  1.0000
  C   C4        1.0  0.50000  0.27749  0.75000  1.0000
  H   H1        1.0  0.00000  0.30800  0.25000  1.0000
  H   H2        1.0  0.50000  0.80800  0.25000  1.0000
  H   H3        1.0  0.00000  0.69200  0.75000  1.0000
  H   H4        1.0  0.50000  0.19200  0.75000  1.0000
