data_image0
_chemical_formula_structural       Co4Cl8O8C4H4
_chemical_formula_sum              "Co4 Cl8 O8 C4 H4"
_cell_length_a       7.7302
_cell_length_b       11.269
_cell_length_c       6.8439
_cell_angle_alpha    90
_cell_angle_beta     107.9
_cell_angle_gamma    90

_space_group_name_H-M_alt    "P 1"
_space_group_IT_number       1

loop_
  _space_group_symop_operation_xyz
  'x, y, z'

loop_
  _atom_site_type_symbol
  _atom_site_label
  _atom_site_symmetry_multiplicity
  _atom_site_fract_x
  _atom_site_fract_y
  _atom_site_fract_z
  _atom_site_occupancy
  Co  Co1       1.0  0.00000  0.00000  0.00000  1.0000
  Co  Co2       1.0  0.00000  0.00000  0.50000  1.0000
  Co  Co3       1.0  0.50000  0.50000  0.00000  1.0000
  Co  Co4       1.0  0.50000  0.50000  0.50000  1.0000
  Cl  Cl1       1.0  0.76986  0.95524  0.17016  1.0000
  Cl  Cl2       1.0  0.23014  0.95524  0.32984  1.0000
  Cl  Cl3       1.0  0.26986  0.45524  0.17016  1.0000
  Cl  Cl4       1.0  0.73014  0.45524  0.32984  1.0000
  Cl  Cl5       1.0  0.23014  0.04476  0.82984  1.0000
  Cl  Cl6       1.0  0.76986  0.04476  0.67016  1.0000
  Cl  Cl7       1.0  0.73014  0.54476  0.82984  1.0000
  Cl  Cl8       1.0  0.26986  0.54476  0.67016  1.0000
  O   O1        1.0  0.00858  0.17569  0.08813  1.0000
  O   O2        1.0  0.99142  0.17569  0.41187  1.0000
  O   O3        1.0  0.50858  0.67569  0.08813  1.0000
  O   O4        1.0  0.49142  0.67569  0.41187  1.0000
  O   O5        1.0  0.99142  0.82431  0.91187  1.0000
  O   O6        1.0  0.00858  0.82431  0.58813  1.0000
  O   O7        1.0  0.49142  0.32431  0.91187  1.0000
  O   O8        1.0  0.50858  0.32431  0.58813  1.0000
  C   C1        1.0  0.00000  0.22567  0.25000  1.0000
  C   C2        1.0  0.50000  0.72567  0.25000  1.0000
  C   C3        1.0  0.00000  0.77433  0.75000  1.0000
  C   C4        1.0  0.50000  0.27433  0.75000  1.0000
  H   H1        1.0  0.00000  0.31100  0.25000  1.0000
  H   H2        1.0  0.50000  0.81100  0.25000  1.0000
  H   H3        1.0  0.00000  0.68900  0.75000  1.0000
  H   H4        1.0  0.50000  0.18900  0.75000  1.0000
