data_image0
_chemical_formula_structural       O32C4H4C20H4O8C8O8C16H8C8H8C8H8O16C16H8C8H8C8U8
_chemical_formula_sum              "O64 C96 H48 U8"
_cell_length_a       8.39
_cell_length_b       18.0142
_cell_length_c       21.9051
_cell_angle_alpha    90
_cell_angle_beta     90
_cell_angle_gamma    90

_space_group_name_H-M_alt    "P 1"
_space_group_IT_number       1

loop_
  _space_group_symop_operation_xyz
  'x, y, z'

loop_
  _atom_site_type_symbol
  _atom_site_label
  _atom_site_symmetry_multiplicity
  _atom_site_fract_x
  _atom_site_fract_y
  _atom_site_fract_z
  _atom_site_occupancy
  O   O1        1.0  0.24670  0.92180  0.32474  1.0000
  O   O2        1.0  0.75330  0.07820  0.82474  1.0000
  O   O3        1.0  0.75330  0.92180  0.17526  1.0000
  O   O4        1.0  0.24670  0.07820  0.67526  1.0000
  O   O5        1.0  0.74670  0.42180  0.32474  1.0000
  O   O6        1.0  0.25330  0.57820  0.82474  1.0000
  O   O7        1.0  0.25330  0.42180  0.17526  1.0000
  O   O8        1.0  0.74670  0.57820  0.67526  1.0000
  O   O9        1.0  0.38480  0.81951  0.32054  1.0000
  O   O10       1.0  0.61520  0.18049  0.82054  1.0000
  O   O11       1.0  0.61520  0.81951  0.17946  1.0000
  O   O12       1.0  0.38480  0.18049  0.67946  1.0000
  O   O13       1.0  0.88480  0.31951  0.32054  1.0000
  O   O14       1.0  0.11520  0.68049  0.82054  1.0000
  O   O15       1.0  0.11520  0.31951  0.17946  1.0000
  O   O16       1.0  0.88480  0.68049  0.67946  1.0000
  O   O17       1.0  0.61260  0.94471  0.30286  1.0000
  O   O18       1.0  0.38740  0.05529  0.80286  1.0000
  O   O19       1.0  0.38740  0.94471  0.19714  1.0000
  O   O20       1.0  0.61260  0.05529  0.69714  1.0000
  O   O21       1.0  0.11260  0.44471  0.30286  1.0000
  O   O22       1.0  0.88740  0.55529  0.80286  1.0000
  O   O23       1.0  0.88740  0.44471  0.19714  1.0000
  O   O24       1.0  0.11260  0.55529  0.69714  1.0000
  O   O25       1.0  0.42990  0.90227  0.44339  1.0000
  O   O26       1.0  0.57010  0.09773  0.94339  1.0000
  O   O27       1.0  0.57010  0.90227  0.05661  1.0000
  O   O28       1.0  0.42990  0.09773  0.55661  1.0000
  O   O29       1.0  0.92990  0.40227  0.44339  1.0000
  O   O30       1.0  0.07010  0.59773  0.94339  1.0000
  O   O31       1.0  0.07010  0.40227  0.05661  1.0000
  O   O32       1.0  0.92990  0.59773  0.55661  1.0000
  C   C1        1.0  0.00000  0.85370  0.25000  1.0000
  C   C2        1.0  0.00000  0.14630  0.75000  1.0000
  C   C3        1.0  0.50000  0.35370  0.25000  1.0000
  C   C4        1.0  0.50000  0.64630  0.75000  1.0000
  H   H1        1.0  0.00000  0.90530  0.25000  1.0000
  H   H2        1.0  0.00000  0.09470  0.75000  1.0000
  H   H3        1.0  0.50000  0.40530  0.25000  1.0000
  H   H4        1.0  0.50000  0.59470  0.75000  1.0000
  C   C5        1.0  0.12530  0.81539  0.27633  1.0000
  C   C6        1.0  0.87470  0.18461  0.77633  1.0000
  C   C7        1.0  0.87470  0.81539  0.22367  1.0000
  C   C8        1.0  0.12530  0.18461  0.72367  1.0000
  C   C9        1.0  0.62530  0.31539  0.27633  1.0000
  C   C10       1.0  0.37470  0.68461  0.77633  1.0000
  C   C11       1.0  0.37470  0.31539  0.22367  1.0000
  C   C12       1.0  0.62530  0.68461  0.72367  1.0000
  C   C13       1.0  0.25810  0.85400  0.30835  1.0000
  C   C14       1.0  0.74190  0.14600  0.80835  1.0000
  C   C15       1.0  0.74190  0.85400  0.19165  1.0000
  C   C16       1.0  0.25810  0.14600  0.69165  1.0000
  C   C17       1.0  0.75810  0.35400  0.30835  1.0000
  C   C18       1.0  0.24190  0.64600  0.80835  1.0000
  C   C19       1.0  0.24190  0.35400  0.19165  1.0000
  C   C20       1.0  0.75810  0.64600  0.69165  1.0000
  C   C21       1.0  0.00000  0.70050  0.25000  1.0000
  C   C22       1.0  0.00000  0.29950  0.75000  1.0000
  C   C23       1.0  0.50000  0.20050  0.25000  1.0000
  C   C24       1.0  0.50000  0.79950  0.75000  1.0000
  H   H5        1.0  0.00000  0.64890  0.25000  1.0000
  H   H6        1.0  0.00000  0.35110  0.75000  1.0000
  H   H7        1.0  0.50000  0.14890  0.25000  1.0000
  H   H8        1.0  0.50000  0.85110  0.75000  1.0000
  O   O33       1.0  0.40390  0.05007  0.37457  1.0000
  O   O34       1.0  0.59610  0.94993  0.87457  1.0000
  O   O35       1.0  0.59610  0.05007  0.12543  1.0000
  O   O36       1.0  0.40390  0.94993  0.62543  1.0000
  O   O37       1.0  0.90390  0.55007  0.37457  1.0000
  O   O38       1.0  0.09610  0.44993  0.87457  1.0000
  O   O39       1.0  0.09610  0.55007  0.12543  1.0000
  O   O40       1.0  0.90390  0.44993  0.62543  1.0000
  C   C25       1.0  0.52670  0.07741  0.40017  1.0000
  C   C26       1.0  0.47330  0.92259  0.90017  1.0000
  C   C27       1.0  0.47330  0.07741  0.09983  1.0000
  C   C28       1.0  0.52670  0.92259  0.59983  1.0000
  C   C29       1.0  0.02670  0.57741  0.40017  1.0000
  C   C30       1.0  0.97330  0.42259  0.90017  1.0000
  C   C31       1.0  0.97330  0.57741  0.09983  1.0000
  C   C32       1.0  0.02670  0.42259  0.59983  1.0000
  O   O41       1.0  0.64110  0.03506  0.41345  1.0000
  O   O42       1.0  0.35890  0.96494  0.91345  1.0000
  O   O43       1.0  0.35890  0.03506  0.08655  1.0000
  O   O44       1.0  0.64110  0.96494  0.58655  1.0000
  O   O45       1.0  0.14110  0.53506  0.41345  1.0000
  O   O46       1.0  0.85890  0.46494  0.91345  1.0000
  O   O47       1.0  0.85890  0.53506  0.08655  1.0000
  O   O48       1.0  0.14110  0.46494  0.58655  1.0000
  C   C33       1.0  0.42190  0.28006  0.41442  1.0000
  C   C34       1.0  0.57810  0.71994  0.91442  1.0000
  C   C35       1.0  0.57810  0.28006  0.08558  1.0000
  C   C36       1.0  0.42190  0.71994  0.58558  1.0000
  C   C37       1.0  0.92190  0.78006  0.41442  1.0000
  C   C38       1.0  0.07810  0.21994  0.91442  1.0000
  C   C39       1.0  0.07810  0.78006  0.08558  1.0000
  C   C40       1.0  0.92190  0.21994  0.58558  1.0000
  C   C41       1.0  0.56100  0.30822  0.43933  1.0000
  C   C42       1.0  0.43900  0.69178  0.93933  1.0000
  C   C43       1.0  0.43900  0.30822  0.06067  1.0000
  C   C44       1.0  0.56100  0.69178  0.56067  1.0000
  C   C45       1.0  0.06100  0.80822  0.43933  1.0000
  C   C46       1.0  0.93900  0.19178  0.93933  1.0000
  C   C47       1.0  0.93900  0.80822  0.06067  1.0000
  C   C48       1.0  0.06100  0.19178  0.56067  1.0000
  H   H9        1.0  0.56980  0.35880  0.44730  1.0000
  H   H10       1.0  0.43020  0.64120  0.94730  1.0000
  H   H11       1.0  0.43020  0.35880  0.05270  1.0000
  H   H12       1.0  0.56980  0.64120  0.55270  1.0000
  H   H13       1.0  0.06980  0.85880  0.44730  1.0000
  H   H14       1.0  0.93020  0.14120  0.94730  1.0000
  H   H15       1.0  0.93020  0.85880  0.05270  1.0000
  H   H16       1.0  0.06980  0.14120  0.55270  1.0000
  C   C49       1.0  0.67430  0.18567  0.44018  1.0000
  C   C50       1.0  0.32570  0.81433  0.94018  1.0000
  C   C51       1.0  0.32570  0.18567  0.05982  1.0000
  C   C52       1.0  0.67430  0.81433  0.55982  1.0000
  C   C53       1.0  0.17430  0.68567  0.44018  1.0000
  C   C54       1.0  0.82570  0.31433  0.94018  1.0000
  C   C55       1.0  0.82570  0.68567  0.05982  1.0000
  C   C56       1.0  0.17430  0.31433  0.55982  1.0000
  H   H17       1.0  0.75840  0.15390  0.44940  1.0000
  H   H18       1.0  0.24160  0.84610  0.94940  1.0000
  H   H19       1.0  0.24160  0.15390  0.05060  1.0000
  H   H20       1.0  0.75840  0.84610  0.55060  1.0000
  H   H21       1.0  0.25840  0.65390  0.44940  1.0000
  H   H22       1.0  0.74160  0.34610  0.94940  1.0000
  H   H23       1.0  0.74160  0.65390  0.05060  1.0000
  H   H24       1.0  0.25840  0.34610  0.55060  1.0000
  C   C57       1.0  0.68790  0.26096  0.45239  1.0000
  C   C58       1.0  0.31210  0.73904  0.95239  1.0000
  C   C59       1.0  0.31210  0.26096  0.04761  1.0000
  C   C60       1.0  0.68790  0.73904  0.54761  1.0000
  C   C61       1.0  0.18790  0.76096  0.45239  1.0000
  C   C62       1.0  0.81210  0.23904  0.95239  1.0000
  C   C63       1.0  0.81210  0.76096  0.04761  1.0000
  C   C64       1.0  0.18790  0.23904  0.54761  1.0000
  H   H25       1.0  0.78130  0.27980  0.46920  1.0000
  H   H26       1.0  0.21870  0.72020  0.96920  1.0000
  H   H27       1.0  0.21870  0.27980  0.03080  1.0000
  H   H28       1.0  0.78130  0.72020  0.53080  1.0000
  H   H29       1.0  0.28130  0.77980  0.46920  1.0000
  H   H30       1.0  0.71870  0.22020  0.96920  1.0000
  H   H31       1.0  0.71870  0.77980  0.03080  1.0000
  H   H32       1.0  0.28130  0.22020  0.53080  1.0000
  O   O49       1.0  0.16150  0.30366  0.37672  1.0000
  O   O50       1.0  0.83850  0.69634  0.87672  1.0000
  O   O51       1.0  0.83850  0.30366  0.12328  1.0000
  O   O52       1.0  0.16150  0.69634  0.62328  1.0000
  O   O53       1.0  0.66150  0.80366  0.37672  1.0000
  O   O54       1.0  0.33850  0.19634  0.87672  1.0000
  O   O55       1.0  0.33850  0.80366  0.12328  1.0000
  O   O56       1.0  0.66150  0.19634  0.62328  1.0000
  O   O57       1.0  0.28860  0.39841  0.41450  1.0000
  O   O58       1.0  0.71140  0.60159  0.91450  1.0000
  O   O59       1.0  0.71140  0.39841  0.08550  1.0000
  O   O60       1.0  0.28860  0.60159  0.58550  1.0000
  O   O61       1.0  0.78860  0.89841  0.41450  1.0000
  O   O62       1.0  0.21140  0.10159  0.91450  1.0000
  O   O63       1.0  0.21140  0.89841  0.08550  1.0000
  O   O64       1.0  0.78860  0.10159  0.58550  1.0000
  C   C65       1.0  0.53730  0.15766  0.41453  1.0000
  C   C66       1.0  0.46270  0.84234  0.91453  1.0000
  C   C67       1.0  0.46270  0.15766  0.08547  1.0000
  C   C68       1.0  0.53730  0.84234  0.58547  1.0000
  C   C69       1.0  0.03730  0.65766  0.41453  1.0000
  C   C70       1.0  0.96270  0.34234  0.91453  1.0000
  C   C71       1.0  0.96270  0.65766  0.08547  1.0000
  C   C72       1.0  0.03730  0.34234  0.58547  1.0000
  C   C73       1.0  0.41000  0.20490  0.40107  1.0000
  C   C74       1.0  0.59000  0.79510  0.90107  1.0000
  C   C75       1.0  0.59000  0.20490  0.09893  1.0000
  C   C76       1.0  0.41000  0.79510  0.59893  1.0000
  C   C77       1.0  0.91000  0.70490  0.40107  1.0000
  C   C78       1.0  0.09000  0.29510  0.90107  1.0000
  C   C79       1.0  0.09000  0.70490  0.09893  1.0000
  C   C80       1.0  0.91000  0.29510  0.59893  1.0000
  H   H33       1.0  0.31770  0.18610  0.38330  1.0000
  H   H34       1.0  0.68230  0.81390  0.88330  1.0000
  H   H35       1.0  0.68230  0.18610  0.11670  1.0000
  H   H36       1.0  0.31770  0.81390  0.61670  1.0000
  H   H37       1.0  0.81770  0.68610  0.38330  1.0000
  H   H38       1.0  0.18230  0.31390  0.88330  1.0000
  H   H39       1.0  0.18230  0.68610  0.11670  1.0000
  H   H40       1.0  0.81770  0.31390  0.61670  1.0000
  C   C81       1.0  0.12660  0.73841  0.27590  1.0000
  C   C82       1.0  0.87340  0.26159  0.77590  1.0000
  C   C83       1.0  0.87340  0.73841  0.22410  1.0000
  C   C84       1.0  0.12660  0.26159  0.72410  1.0000
  C   C85       1.0  0.62660  0.23841  0.27590  1.0000
  C   C86       1.0  0.37340  0.76159  0.77590  1.0000
  C   C87       1.0  0.37340  0.23841  0.22410  1.0000
  C   C88       1.0  0.62660  0.76159  0.72410  1.0000
  H   H41       1.0  0.21170  0.71250  0.29280  1.0000
  H   H42       1.0  0.78830  0.28750  0.79280  1.0000
  H   H43       1.0  0.78830  0.71250  0.20720  1.0000
  H   H44       1.0  0.21170  0.28750  0.70720  1.0000
  H   H45       1.0  0.71170  0.21250  0.29280  1.0000
  H   H46       1.0  0.28830  0.78750  0.79280  1.0000
  H   H47       1.0  0.28830  0.21250  0.20720  1.0000
  H   H48       1.0  0.71170  0.78750  0.70720  1.0000
  C   C89       1.0  0.28460  0.32964  0.40114  1.0000
  C   C90       1.0  0.71540  0.67036  0.90114  1.0000
  C   C91       1.0  0.71540  0.32964  0.09886  1.0000
  C   C92       1.0  0.28460  0.67036  0.59886  1.0000
  C   C93       1.0  0.78460  0.82964  0.40114  1.0000
  C   C94       1.0  0.21540  0.17036  0.90114  1.0000
  C   C95       1.0  0.21540  0.82964  0.09886  1.0000
  C   C96       1.0  0.78460  0.17036  0.59886  1.0000
  U   U1        1.0  0.51971  0.92169  0.37262  1.0000
  U   U2        1.0  0.48029  0.07831  0.87262  1.0000
  U   U3        1.0  0.48029  0.92169  0.12738  1.0000
  U   U4        1.0  0.51971  0.07831  0.62738  1.0000
  U   U5        1.0  0.01971  0.42169  0.37262  1.0000
  U   U6        1.0  0.98029  0.57831  0.87262  1.0000
  U   U7        1.0  0.98029  0.42169  0.12738  1.0000
  U   U8        1.0  0.01971  0.57831  0.62738  1.0000
