data_image0
_chemical_formula_structural       Ag2P2S2O10C6H2C4H2C2H2C2H2C4H2C2H2C2H2C2H2C2H2C4H2C2H2C2H2C2H2C2H2C4H2C2H2C2H2C2H2C2H2
_chemical_formula_sum              "Ag2 P2 S2 O10 C50 H38"
_cell_length_a       9.1199
_cell_length_b       9.5148
_cell_length_c       29.1988
_cell_angle_alpha    91.426
_cell_angle_beta     98.72
_cell_angle_gamma    115.998

_space_group_name_H-M_alt    "P 1"
_space_group_IT_number       1

loop_
  _space_group_symop_operation_xyz
  'x, y, z'

loop_
  _atom_site_type_symbol
  _atom_site_label
  _atom_site_symmetry_multiplicity
  _atom_site_fract_x
  _atom_site_fract_y
  _atom_site_fract_z
  _atom_site_occupancy
  Ag  Ag1       1.0  0.65640  0.18232  0.29407  1.0000
  Ag  Ag2       1.0  0.34360  0.81768  0.70593  1.0000
  P   P1        1.0  0.73272  0.23766  0.37475  1.0000
  P   P2        1.0  0.26728  0.76234  0.62525  1.0000
  S   S1        1.0  0.42874  0.80941  0.23536  1.0000
  S   S2        1.0  0.57126  0.19059  0.76464  1.0000
  O   O1        1.0  0.68010  0.39160  0.24174  1.0000
  O   O2        1.0  0.31990  0.60840  0.75826  1.0000
  O   O3        1.0  0.86970  0.31010  0.24696  1.0000
  O   O4        1.0  0.13030  0.68990  0.75304  1.0000
  O   O5        1.0  0.43380  0.77190  0.28126  1.0000
  O   O6        1.0  0.56620  0.22810  0.71874  1.0000
  O   O7        1.0  0.49720  0.73290  0.20201  1.0000
  O   O8        1.0  0.50280  0.26710  0.79799  1.0000
  O   O9        1.0  0.50140  0.98100  0.23552  1.0000
  O   O10       1.0  0.49860  0.01900  0.76448  1.0000
  C   C1        1.0  0.81960  0.40550  0.23622  1.0000
  C   C2        1.0  0.18040  0.59450  0.76378  1.0000
  C   C3        1.0  0.93950  0.54490  0.21675  1.0000
  C   C4        1.0  0.06050  0.45510  0.78325  1.0000
  C   C5        1.0  0.10570  0.60420  0.23090  1.0000
  C   C6        1.0  0.89430  0.39580  0.76910  1.0000
  H   H1        1.0  0.14500  0.55150  0.25200  1.0000
  H   H2        1.0  0.85500  0.44850  0.74800  1.0000
  C   C7        1.0  0.21860  0.73600  0.21609  1.0000
  C   C8        1.0  0.78140  0.26400  0.78391  1.0000
  C   C9        1.0  0.16880  0.80880  0.18531  1.0000
  C   C10       1.0  0.83120  0.19120  0.81469  1.0000
  H   H3        1.0  0.24280  0.89840  0.17410  1.0000
  H   H4        1.0  0.75720  0.10160  0.82590  1.0000
  C   C11       1.0  0.00420  0.74750  0.17050  1.0000
  C   C12       1.0  0.99580  0.25250  0.82950  1.0000
  H   H5        1.0  0.96540  0.79520  0.14750  1.0000
  H   H6        1.0  0.03460  0.20480  0.85250  1.0000
  C   C13       1.0  0.88940  0.61880  0.18711  1.0000
  C   C14       1.0  0.11060  0.38120  0.81289  1.0000
  H   H7        1.0  0.77660  0.58560  0.17700  1.0000
  H   H8        1.0  0.22340  0.41440  0.82300  1.0000
  C   C15       1.0  0.76690  0.08450  0.39326  1.0000
  C   C16       1.0  0.23310  0.91550  0.60674  1.0000
  C   C17       1.0  0.64780  0.93080  0.37899  1.0000
  C   C18       1.0  0.35220  0.06920  0.62101  1.0000
  H   H9        1.0  0.54840  0.91160  0.35980  1.0000
  H   H10       1.0  0.45160  0.08840  0.64020  1.0000
  C   C19       1.0  0.67710  0.80590  0.39348  1.0000
  C   C20       1.0  0.32290  0.19410  0.60652  1.0000
  H   H11       1.0  0.59730  0.70310  0.38390  1.0000
  H   H12       1.0  0.40270  0.29690  0.61610  1.0000
  C   C21       1.0  0.82550  0.83470  0.42223  1.0000
  C   C22       1.0  0.17450  0.16530  0.57777  1.0000
  H   H13       1.0  0.84510  0.75110  0.43190  1.0000
  H   H14       1.0  0.15490  0.24890  0.56810  1.0000
  C   C23       1.0  0.94470  0.98830  0.43649  1.0000
  C   C24       1.0  0.05530  0.01170  0.56351  1.0000
  H   H15       1.0  0.04400  0.00760  0.45570  1.0000
  H   H16       1.0  0.95600  0.99240  0.54430  1.0000
  C   C25       1.0  0.91540  0.11330  0.42200  1.0000
  C   C26       1.0  0.08460  0.88670  0.57800  1.0000
  H   H17       1.0  0.99520  0.21610  0.43150  1.0000
  H   H18       1.0  0.00480  0.78390  0.56850  1.0000
  C   C27       1.0  0.58750  0.26110  0.41254  1.0000
  C   C28       1.0  0.41250  0.73890  0.58746  1.0000
  C   C29       1.0  0.54870  0.19460  0.45271  1.0000
  C   C30       1.0  0.45130  0.80540  0.54729  1.0000
  H   H19       1.0  0.59560  0.12960  0.46350  1.0000
  H   H20       1.0  0.40440  0.87040  0.53650  1.0000
  C   C31       1.0  0.43770  0.21920  0.47990  1.0000
  C   C32       1.0  0.56230  0.78080  0.52010  1.0000
  H   H21       1.0  0.41840  0.16940  0.50690  1.0000
  H   H22       1.0  0.58160  0.83060  0.49310  1.0000
  C   C33       1.0  0.36410  0.30840  0.46800  1.0000
  C   C34       1.0  0.63590  0.69160  0.53200  1.0000
  H   H23       1.0  0.29330  0.32350  0.48520  1.0000
  H   H24       1.0  0.70670  0.67650  0.51480  1.0000
  C   C35       1.0  0.40070  0.37490  0.42890  1.0000
  C   C36       1.0  0.59930  0.62510  0.57110  1.0000
  H   H25       1.0  0.35470  0.44120  0.41890  1.0000
  H   H26       1.0  0.64530  0.55880  0.58110  1.0000
  C   C37       1.0  0.50930  0.34970  0.40080  1.0000
  C   C38       1.0  0.49070  0.65030  0.59920  1.0000
  H   H27       1.0  0.52480  0.39780  0.37350  1.0000
  H   H28       1.0  0.47520  0.60220  0.62650  1.0000
  C   C39       1.0  0.92130  0.42180  0.39271  1.0000
  C   C40       1.0  0.07870  0.57820  0.60729  1.0000
  C   C41       1.0  0.95520  0.51480  0.43678  1.0000
  C   C42       1.0  0.04480  0.48520  0.56322  1.0000
  H   H29       1.0  0.88030  0.48110  0.45720  1.0000
  H   H30       1.0  0.11970  0.51890  0.54280  1.0000
  C   C43       1.0  0.09930  0.65330  0.44800  1.0000
  C   C44       1.0  0.90070  0.34670  0.55200  1.0000
  H   H31       1.0  0.12290  0.71500  0.47590  1.0000
  H   H32       1.0  0.87710  0.28500  0.52410  1.0000
  C   C45       1.0  0.21060  0.69950  0.41610  1.0000
  C   C46       1.0  0.78940  0.30050  0.58390  1.0000
  H   H33       1.0  0.30840  0.79230  0.42380  1.0000
  H   H34       1.0  0.69160  0.20770  0.57620  1.0000
  C   C47       1.0  0.17940  0.60930  0.37240  1.0000
  C   C48       1.0  0.82060  0.39070  0.62760  1.0000
  H   H35       1.0  0.25540  0.64380  0.35230  1.0000
  H   H36       1.0  0.74460  0.35620  0.64770  1.0000
  C   C49       1.0  0.03500  0.47060  0.36058  1.0000
  C   C50       1.0  0.96500  0.52940  0.63942  1.0000
  H   H37       1.0  0.01200  0.41030  0.33250  1.0000
  H   H38       1.0  0.98800  0.58970  0.66750  1.0000
