data_image0
_chemical_formula_structural       Ho4O32C4H4C4H4C4H4C4H4
_chemical_formula_sum              "Ho4 O32 C16 H16"
_cell_length_a       18.2209
_cell_length_b       6.5751
_cell_length_c       7.585
_cell_angle_alpha    90
_cell_angle_beta     90
_cell_angle_gamma    90

_space_group_name_H-M_alt    "P 1"
_space_group_IT_number       1

loop_
  _space_group_symop_operation_xyz
  'x, y, z'

loop_
  _atom_site_type_symbol
  _atom_site_label
  _atom_site_symmetry_multiplicity
  _atom_site_fract_x
  _atom_site_fract_y
  _atom_site_fract_z
  _atom_site_occupancy
  Ho  Ho1       1.0  0.39795  0.79568  0.26603  1.0000
  Ho  Ho2       1.0  0.60205  0.20432  0.76603  1.0000
  Ho  Ho3       1.0  0.89795  0.20432  0.26603  1.0000
  Ho  Ho4       1.0  0.10205  0.79568  0.76603  1.0000
  O   O1        1.0  0.42679  0.59400  0.52320  1.0000
  O   O2        1.0  0.57321  0.40600  0.02320  1.0000
  O   O3        1.0  0.92679  0.40600  0.52320  1.0000
  O   O4        1.0  0.07321  0.59400  0.02320  1.0000
  O   O5        1.0  0.49413  0.39410  0.69470  1.0000
  O   O6        1.0  0.50587  0.60590  0.19470  1.0000
  O   O7        1.0  0.99413  0.60590  0.69470  1.0000
  O   O8        1.0  0.00587  0.39410  0.19470  1.0000
  O   O9        1.0  0.32209  0.88520  0.49060  1.0000
  O   O10       1.0  0.67791  0.11480  0.99060  1.0000
  O   O11       1.0  0.82209  0.11480  0.49060  1.0000
  O   O12       1.0  0.17791  0.88520  0.99060  1.0000
  O   O13       1.0  0.21905  0.80570  0.62620  1.0000
  O   O14       1.0  0.78095  0.19430  0.12620  1.0000
  O   O15       1.0  0.71905  0.19430  0.62620  1.0000
  O   O16       1.0  0.28095  0.80570  0.12620  1.0000
  O   O17       1.0  0.34694  0.46900  0.22180  1.0000
  O   O18       1.0  0.65306  0.53100  0.72180  1.0000
  O   O19       1.0  0.84694  0.53100  0.22180  1.0000
  O   O20       1.0  0.15306  0.46900  0.72180  1.0000
  O   O21       1.0  0.37634  0.14270  0.19130  1.0000
  O   O22       1.0  0.62366  0.85730  0.69130  1.0000
  O   O23       1.0  0.87634  0.85730  0.19130  1.0000
  O   O24       1.0  0.12366  0.14270  0.69130  1.0000
  O   O25       1.0  0.49067  0.97280  0.40860  1.0000
  O   O26       1.0  0.50933  0.02720  0.90860  1.0000
  O   O27       1.0  0.99067  0.02720  0.40860  1.0000
  O   O28       1.0  0.00933  0.97280  0.90860  1.0000
  O   O29       1.0  0.58496  0.17970  0.46000  1.0000
  O   O30       1.0  0.41504  0.82030  0.96000  1.0000
  O   O31       1.0  0.08496  0.82030  0.46000  1.0000
  O   O32       1.0  0.91504  0.17970  0.96000  1.0000
  C   C1        1.0  0.48690  0.52280  0.57570  1.0000
  C   C2        1.0  0.51310  0.47720  0.07570  1.0000
  C   C3        1.0  0.98690  0.47720  0.57570  1.0000
  C   C4        1.0  0.01310  0.52280  0.07570  1.0000
  H   H1        1.0  0.53030  0.57110  0.52020  1.0000
  H   H2        1.0  0.46970  0.42890  0.02020  1.0000
  H   H3        1.0  0.03030  0.42890  0.52020  1.0000
  H   H4        1.0  0.96970  0.57110  0.02020  1.0000
  C   C5        1.0  0.26400  0.92440  0.56710  1.0000
  C   C6        1.0  0.73600  0.07560  0.06710  1.0000
  C   C7        1.0  0.76400  0.07560  0.56710  1.0000
  C   C8        1.0  0.23600  0.92440  0.06710  1.0000
  H   H5        1.0  0.25290  0.06460  0.58150  1.0000
  H   H6        1.0  0.74710  0.93540  0.08150  1.0000
  H   H7        1.0  0.75290  0.93540  0.58150  1.0000
  H   H8        1.0  0.24710  0.06460  0.08150  1.0000
  C   C9        1.0  0.36210  0.29220  0.28010  1.0000
  C   C10       1.0  0.63790  0.70780  0.78010  1.0000
  C   C11       1.0  0.86210  0.70780  0.28010  1.0000
  C   C12       1.0  0.13790  0.29220  0.78010  1.0000
  H   H9        1.0  0.36220  0.27510  0.40440  1.0000
  H   H10       1.0  0.63780  0.72490  0.90440  1.0000
  H   H11       1.0  0.86220  0.72490  0.40440  1.0000
  H   H12       1.0  0.13780  0.27510  0.90440  1.0000
  C   C13       1.0  0.54390  0.07830  0.35980  1.0000
  C   C14       1.0  0.45610  0.92170  0.85980  1.0000
  C   C15       1.0  0.04390  0.92170  0.35980  1.0000
  C   C16       1.0  0.95610  0.07830  0.85980  1.0000
  H   H13       1.0  0.55420  0.08230  0.23710  1.0000
  H   H14       1.0  0.44580  0.91770  0.73710  1.0000
  H   H15       1.0  0.05420  0.91770  0.23710  1.0000
  H   H16       1.0  0.94580  0.08230  0.73710  1.0000
