data_image0
_chemical_formula_structural       Er4O32C4H4C4H4C4H4C4H4
_chemical_formula_sum              "Er4 O32 C16 H16"
_cell_length_a       18.1802
_cell_length_b       6.563
_cell_length_c       7.5566
_cell_angle_alpha    90
_cell_angle_beta     90
_cell_angle_gamma    90

_space_group_name_H-M_alt    "P 1"
_space_group_IT_number       1

loop_
  _space_group_symop_operation_xyz
  'x, y, z'

loop_
  _atom_site_type_symbol
  _atom_site_label
  _atom_site_symmetry_multiplicity
  _atom_site_fract_x
  _atom_site_fract_y
  _atom_site_fract_z
  _atom_site_occupancy
  Er  Er1       1.0  0.39792  0.79391  0.26601  1.0000
  Er  Er2       1.0  0.60208  0.20609  0.76601  1.0000
  Er  Er3       1.0  0.89792  0.20609  0.26601  1.0000
  Er  Er4       1.0  0.10208  0.79391  0.76601  1.0000
  O   O1        1.0  0.42605  0.59380  0.52420  1.0000
  O   O2        1.0  0.57395  0.40620  0.02420  1.0000
  O   O3        1.0  0.92605  0.40620  0.52420  1.0000
  O   O4        1.0  0.07395  0.59380  0.02420  1.0000
  O   O5        1.0  0.49408  0.39550  0.69500  1.0000
  O   O6        1.0  0.50592  0.60450  0.19500  1.0000
  O   O7        1.0  0.99408  0.60450  0.69500  1.0000
  O   O8        1.0  0.00592  0.39550  0.19500  1.0000
  O   O9        1.0  0.32189  0.88460  0.48910  1.0000
  O   O10       1.0  0.67811  0.11540  0.98910  1.0000
  O   O11       1.0  0.82189  0.11540  0.48910  1.0000
  O   O12       1.0  0.17811  0.88460  0.98910  1.0000
  O   O13       1.0  0.21820  0.80090  0.62220  1.0000
  O   O14       1.0  0.78180  0.19910  0.12220  1.0000
  O   O15       1.0  0.71820  0.19910  0.62220  1.0000
  O   O16       1.0  0.28180  0.80090  0.12220  1.0000
  O   O17       1.0  0.34780  0.46700  0.22150  1.0000
  O   O18       1.0  0.65220  0.53300  0.72150  1.0000
  O   O19       1.0  0.84780  0.53300  0.22150  1.0000
  O   O20       1.0  0.15220  0.46700  0.72150  1.0000
  O   O21       1.0  0.37550  0.14060  0.19170  1.0000
  O   O22       1.0  0.62450  0.85940  0.69170  1.0000
  O   O23       1.0  0.87550  0.85940  0.19170  1.0000
  O   O24       1.0  0.12450  0.14060  0.69170  1.0000
  O   O25       1.0  0.48998  0.97230  0.40890  1.0000
  O   O26       1.0  0.51002  0.02770  0.90890  1.0000
  O   O27       1.0  0.98998  0.02770  0.40890  1.0000
  O   O28       1.0  0.01002  0.97230  0.90890  1.0000
  O   O29       1.0  0.58430  0.18040  0.46000  1.0000
  O   O30       1.0  0.41570  0.81960  0.96000  1.0000
  O   O31       1.0  0.08430  0.81960  0.46000  1.0000
  O   O32       1.0  0.91570  0.18040  0.96000  1.0000
  C   C1        1.0  0.48700  0.52420  0.57660  1.0000
  C   C2        1.0  0.51300  0.47580  0.07660  1.0000
  C   C3        1.0  0.98700  0.47580  0.57660  1.0000
  C   C4        1.0  0.01300  0.52420  0.07660  1.0000
  H   H1        1.0  0.53030  0.57400  0.52140  1.0000
  H   H2        1.0  0.46970  0.42600  0.02140  1.0000
  H   H3        1.0  0.03030  0.42600  0.52140  1.0000
  H   H4        1.0  0.96970  0.57400  0.02140  1.0000
  C   C5        1.0  0.26390  0.92250  0.56880  1.0000
  C   C6        1.0  0.73610  0.07750  0.06880  1.0000
  C   C7        1.0  0.76390  0.07750  0.56880  1.0000
  C   C8        1.0  0.23610  0.92250  0.06880  1.0000
  H   H5        1.0  0.25390  0.06230  0.59090  1.0000
  H   H6        1.0  0.74610  0.93770  0.09090  1.0000
  H   H7        1.0  0.75390  0.93770  0.59090  1.0000
  H   H8        1.0  0.24610  0.06230  0.09090  1.0000
  C   C9        1.0  0.36250  0.29200  0.28430  1.0000
  C   C10       1.0  0.63750  0.70800  0.78430  1.0000
  C   C11       1.0  0.86250  0.70800  0.28430  1.0000
  C   C12       1.0  0.13750  0.29200  0.78430  1.0000
  H   H9        1.0  0.36350  0.27650  0.40930  1.0000
  H   H10       1.0  0.63650  0.72350  0.90930  1.0000
  H   H11       1.0  0.86350  0.72350  0.40930  1.0000
  H   H12       1.0  0.13650  0.27650  0.90930  1.0000
  C   C13       1.0  0.54270  0.07830  0.36020  1.0000
  C   C14       1.0  0.45730  0.92170  0.86020  1.0000
  C   C15       1.0  0.04270  0.92170  0.36020  1.0000
  C   C16       1.0  0.95730  0.07830  0.86020  1.0000
  H   H13       1.0  0.55260  0.08310  0.23680  1.0000
  H   H14       1.0  0.44740  0.91690  0.73680  1.0000
  H   H15       1.0  0.05260  0.91690  0.23680  1.0000
  H   H16       1.0  0.94740  0.08310  0.73680  1.0000
