data_image0
_chemical_formula_structural       Er4O32C4H4C4H4C4H4C4H4
_chemical_formula_sum              "Er4 O32 C16 H16"
_cell_length_a       18.264
_cell_length_b       6.5656
_cell_length_c       7.5616
_cell_angle_alpha    90
_cell_angle_beta     90
_cell_angle_gamma    90

_space_group_name_H-M_alt    "P 1"
_space_group_IT_number       1

loop_
  _space_group_symop_operation_xyz
  'x, y, z'

loop_
  _atom_site_type_symbol
  _atom_site_label
  _atom_site_symmetry_multiplicity
  _atom_site_fract_x
  _atom_site_fract_y
  _atom_site_fract_z
  _atom_site_occupancy
  Er  Er1       1.0  0.39791  0.79435  0.26611  1.0000
  Er  Er2       1.0  0.60209  0.20565  0.76611  1.0000
  Er  Er3       1.0  0.89791  0.20565  0.26611  1.0000
  Er  Er4       1.0  0.10209  0.79435  0.76611  1.0000
  O   O1        1.0  0.42694  0.59340  0.52390  1.0000
  O   O2        1.0  0.57306  0.40660  0.02390  1.0000
  O   O3        1.0  0.92694  0.40660  0.52390  1.0000
  O   O4        1.0  0.07306  0.59340  0.02390  1.0000
  O   O5        1.0  0.49478  0.39420  0.69310  1.0000
  O   O6        1.0  0.50522  0.60580  0.19310  1.0000
  O   O7        1.0  0.99478  0.60580  0.69310  1.0000
  O   O8        1.0  0.00522  0.39420  0.19310  1.0000
  O   O9        1.0  0.32180  0.88050  0.48980  1.0000
  O   O10       1.0  0.67820  0.11950  0.98980  1.0000
  O   O11       1.0  0.82180  0.11950  0.48980  1.0000
  O   O12       1.0  0.17820  0.88050  0.98980  1.0000
  O   O13       1.0  0.21850  0.80270  0.62530  1.0000
  O   O14       1.0  0.78150  0.19730  0.12530  1.0000
  O   O15       1.0  0.71850  0.19730  0.62530  1.0000
  O   O16       1.0  0.28150  0.80270  0.12530  1.0000
  O   O17       1.0  0.34801  0.46770  0.22030  1.0000
  O   O18       1.0  0.65199  0.53230  0.72030  1.0000
  O   O19       1.0  0.84801  0.53230  0.22030  1.0000
  O   O20       1.0  0.15199  0.46770  0.72030  1.0000
  O   O21       1.0  0.37490  0.14050  0.19310  1.0000
  O   O22       1.0  0.62510  0.85950  0.69310  1.0000
  O   O23       1.0  0.87490  0.85950  0.19310  1.0000
  O   O24       1.0  0.12510  0.14050  0.69310  1.0000
  O   O25       1.0  0.48969  0.97320  0.40790  1.0000
  O   O26       1.0  0.51031  0.02680  0.90790  1.0000
  O   O27       1.0  0.98969  0.02680  0.40790  1.0000
  O   O28       1.0  0.01031  0.97320  0.90790  1.0000
  O   O29       1.0  0.58480  0.17580  0.46080  1.0000
  O   O30       1.0  0.41520  0.82420  0.96080  1.0000
  O   O31       1.0  0.08480  0.82420  0.46080  1.0000
  O   O32       1.0  0.91520  0.17580  0.96080  1.0000
  C   C1        1.0  0.48760  0.52450  0.57550  1.0000
  C   C2        1.0  0.51240  0.47550  0.07550  1.0000
  C   C3        1.0  0.98760  0.47550  0.57550  1.0000
  C   C4        1.0  0.01240  0.52450  0.07550  1.0000
  H   H1        1.0  0.52980  0.57460  0.52200  1.0000
  H   H2        1.0  0.47020  0.42540  0.02200  1.0000
  H   H3        1.0  0.02980  0.42540  0.52200  1.0000
  H   H4        1.0  0.97020  0.57460  0.02200  1.0000
  C   C5        1.0  0.26350  0.92030  0.56420  1.0000
  C   C6        1.0  0.73650  0.07970  0.06420  1.0000
  C   C7        1.0  0.76350  0.07970  0.56420  1.0000
  C   C8        1.0  0.23650  0.92030  0.06420  1.0000
  H   H5        1.0  0.25240  0.05790  0.57510  1.0000
  H   H6        1.0  0.74760  0.94210  0.07510  1.0000
  H   H7        1.0  0.75240  0.94210  0.57510  1.0000
  H   H8        1.0  0.24760  0.05790  0.07510  1.0000
  C   C9        1.0  0.36270  0.29270  0.28180  1.0000
  C   C10       1.0  0.63730  0.70730  0.78180  1.0000
  C   C11       1.0  0.86270  0.70730  0.28180  1.0000
  C   C12       1.0  0.13730  0.29270  0.78180  1.0000
  H   H9        1.0  0.36430  0.27880  0.40410  1.0000
  H   H10       1.0  0.63570  0.72120  0.90410  1.0000
  H   H11       1.0  0.86430  0.72120  0.40410  1.0000
  H   H12       1.0  0.13570  0.27880  0.90410  1.0000
  C   C13       1.0  0.54280  0.07670  0.36020  1.0000
  C   C14       1.0  0.45720  0.92330  0.86020  1.0000
  C   C15       1.0  0.04280  0.92330  0.36020  1.0000
  C   C16       1.0  0.95720  0.07670  0.86020  1.0000
  H   H13       1.0  0.55260  0.08190  0.23960  1.0000
  H   H14       1.0  0.44740  0.91810  0.73960  1.0000
  H   H15       1.0  0.05260  0.91810  0.23960  1.0000
  H   H16       1.0  0.94740  0.08190  0.73960  1.0000
