data_image0
_chemical_formula_structural       Y4O32C4H4C4H4C4H4C4H4
_chemical_formula_sum              "Y4 O32 C16 H16"
_cell_length_a       18.2978
_cell_length_b       6.5808
_cell_length_c       7.584
_cell_angle_alpha    90
_cell_angle_beta     90
_cell_angle_gamma    90

_space_group_name_H-M_alt    "P 1"
_space_group_IT_number       1

loop_
  _space_group_symop_operation_xyz
  'x, y, z'

loop_
  _atom_site_type_symbol
  _atom_site_label
  _atom_site_symmetry_multiplicity
  _atom_site_fract_x
  _atom_site_fract_y
  _atom_site_fract_z
  _atom_site_occupancy
  Y   Y1        1.0  0.39783  0.79458  0.26596  1.0000
  Y   Y2        1.0  0.60217  0.20542  0.76596  1.0000
  Y   Y3        1.0  0.89783  0.20542  0.26596  1.0000
  Y   Y4        1.0  0.10217  0.79458  0.76596  1.0000
  O   O1        1.0  0.42705  0.59470  0.52340  1.0000
  O   O2        1.0  0.57295  0.40530  0.02340  1.0000
  O   O3        1.0  0.92705  0.40530  0.52340  1.0000
  O   O4        1.0  0.07295  0.59470  0.02340  1.0000
  O   O5        1.0  0.49484  0.39570  0.69310  1.0000
  O   O6        1.0  0.50516  0.60430  0.19310  1.0000
  O   O7        1.0  0.99484  0.60430  0.69310  1.0000
  O   O8        1.0  0.00516  0.39570  0.19310  1.0000
  O   O9        1.0  0.32153  0.88010  0.49030  1.0000
  O   O10       1.0  0.67847  0.11990  0.99030  1.0000
  O   O11       1.0  0.82153  0.11990  0.49030  1.0000
  O   O12       1.0  0.17847  0.88010  0.99030  1.0000
  O   O13       1.0  0.21905  0.80330  0.62500  1.0000
  O   O14       1.0  0.78095  0.19670  0.12500  1.0000
  O   O15       1.0  0.71905  0.19670  0.62500  1.0000
  O   O16       1.0  0.28095  0.80330  0.12500  1.0000
  O   O17       1.0  0.34810  0.46780  0.22100  1.0000
  O   O18       1.0  0.65190  0.53220  0.72100  1.0000
  O   O19       1.0  0.84810  0.53220  0.22100  1.0000
  O   O20       1.0  0.15190  0.46780  0.72100  1.0000
  O   O21       1.0  0.37476  0.14170  0.19320  1.0000
  O   O22       1.0  0.62524  0.85830  0.69320  1.0000
  O   O23       1.0  0.87476  0.85830  0.19320  1.0000
  O   O24       1.0  0.12524  0.14170  0.69320  1.0000
  O   O25       1.0  0.49010  0.97330  0.40620  1.0000
  O   O26       1.0  0.50990  0.02670  0.90620  1.0000
  O   O27       1.0  0.99010  0.02670  0.40620  1.0000
  O   O28       1.0  0.00990  0.97330  0.90620  1.0000
  O   O29       1.0  0.58431  0.17700  0.46000  1.0000
  O   O30       1.0  0.41569  0.82300  0.96000  1.0000
  O   O31       1.0  0.08431  0.82300  0.46000  1.0000
  O   O32       1.0  0.91569  0.17700  0.96000  1.0000
  C   C1        1.0  0.48700  0.52440  0.57440  1.0000
  C   C2        1.0  0.51300  0.47560  0.07440  1.0000
  C   C3        1.0  0.98700  0.47560  0.57440  1.0000
  C   C4        1.0  0.01300  0.52440  0.07440  1.0000
  H   H1        1.0  0.52900  0.57220  0.51920  1.0000
  H   H2        1.0  0.47100  0.42780  0.01920  1.0000
  H   H3        1.0  0.02900  0.42780  0.51920  1.0000
  H   H4        1.0  0.97100  0.57220  0.01920  1.0000
  C   C5        1.0  0.26333  0.91950  0.56520  1.0000
  C   C6        1.0  0.73667  0.08050  0.06520  1.0000
  C   C7        1.0  0.76333  0.08050  0.56520  1.0000
  C   C8        1.0  0.23667  0.91950  0.06520  1.0000
  H   H5        1.0  0.25230  0.05680  0.57700  1.0000
  H   H6        1.0  0.74770  0.94320  0.07700  1.0000
  H   H7        1.0  0.75230  0.94320  0.57700  1.0000
  H   H8        1.0  0.24770  0.05680  0.07700  1.0000
  C   C9        1.0  0.36196  0.29360  0.28070  1.0000
  C   C10       1.0  0.63804  0.70640  0.78070  1.0000
  C   C11       1.0  0.86196  0.70640  0.28070  1.0000
  C   C12       1.0  0.13804  0.29360  0.78070  1.0000
  H   H9        1.0  0.36250  0.27900  0.40270  1.0000
  H   H10       1.0  0.63750  0.72100  0.90270  1.0000
  H   H11       1.0  0.86250  0.72100  0.40270  1.0000
  H   H12       1.0  0.13750  0.27900  0.90270  1.0000
  C   C13       1.0  0.54339  0.07670  0.36080  1.0000
  C   C14       1.0  0.45661  0.92330  0.86080  1.0000
  C   C15       1.0  0.04339  0.92330  0.36080  1.0000
  C   C16       1.0  0.95661  0.07670  0.86080  1.0000
  H   H13       1.0  0.55410  0.08000  0.24090  1.0000
  H   H14       1.0  0.44590  0.92000  0.74090  1.0000
  H   H15       1.0  0.05410  0.92000  0.24090  1.0000
  H   H16       1.0  0.94590  0.08000  0.74090  1.0000
