data_image0
_chemical_formula_structural       Y4O32C4H4C4H4C4H4C4H4
_chemical_formula_sum              "Y4 O32 C16 H16"
_cell_length_a       18.2232
_cell_length_b       6.579
_cell_length_c       7.5847
_cell_angle_alpha    90
_cell_angle_beta     90
_cell_angle_gamma    90

_space_group_name_H-M_alt    "P 1"
_space_group_IT_number       1

loop_
  _space_group_symop_operation_xyz
  'x, y, z'

loop_
  _atom_site_type_symbol
  _atom_site_label
  _atom_site_symmetry_multiplicity
  _atom_site_fract_x
  _atom_site_fract_y
  _atom_site_fract_z
  _atom_site_occupancy
  Y   Y1        1.0  0.39785  0.79443  0.26586  1.0000
  Y   Y2        1.0  0.60215  0.20557  0.76586  1.0000
  Y   Y3        1.0  0.89785  0.20557  0.26586  1.0000
  Y   Y4        1.0  0.10215  0.79443  0.76586  1.0000
  O   O1        1.0  0.42647  0.59500  0.52370  1.0000
  O   O2        1.0  0.57353  0.40500  0.02370  1.0000
  O   O3        1.0  0.92647  0.40500  0.52370  1.0000
  O   O4        1.0  0.07353  0.59500  0.02370  1.0000
  O   O5        1.0  0.49448  0.39570  0.69510  1.0000
  O   O6        1.0  0.50552  0.60430  0.19510  1.0000
  O   O7        1.0  0.99448  0.60430  0.69510  1.0000
  O   O8        1.0  0.00552  0.39570  0.19510  1.0000
  O   O9        1.0  0.32158  0.88560  0.48920  1.0000
  O   O10       1.0  0.67842  0.11440  0.98920  1.0000
  O   O11       1.0  0.82158  0.11440  0.48920  1.0000
  O   O12       1.0  0.17842  0.88560  0.98920  1.0000
  O   O13       1.0  0.21844  0.80320  0.62300  1.0000
  O   O14       1.0  0.78156  0.19680  0.12300  1.0000
  O   O15       1.0  0.71844  0.19680  0.62300  1.0000
  O   O16       1.0  0.28156  0.80320  0.12300  1.0000
  O   O17       1.0  0.34751  0.46790  0.22230  1.0000
  O   O18       1.0  0.65249  0.53210  0.72230  1.0000
  O   O19       1.0  0.84751  0.53210  0.22230  1.0000
  O   O20       1.0  0.15249  0.46790  0.72230  1.0000
  O   O21       1.0  0.37566  0.14140  0.19190  1.0000
  O   O22       1.0  0.62434  0.85860  0.69190  1.0000
  O   O23       1.0  0.87566  0.85860  0.19190  1.0000
  O   O24       1.0  0.12434  0.14140  0.69190  1.0000
  O   O25       1.0  0.49037  0.97300  0.40760  1.0000
  O   O26       1.0  0.50963  0.02700  0.90760  1.0000
  O   O27       1.0  0.99037  0.02700  0.40760  1.0000
  O   O28       1.0  0.00963  0.97300  0.90760  1.0000
  O   O29       1.0  0.58415  0.18070  0.46000  1.0000
  O   O30       1.0  0.41585  0.81930  0.96000  1.0000
  O   O31       1.0  0.08415  0.81930  0.46000  1.0000
  O   O32       1.0  0.91585  0.18070  0.96000  1.0000
  C   C1        1.0  0.48706  0.52480  0.57540  1.0000
  C   C2        1.0  0.51294  0.47520  0.07540  1.0000
  C   C3        1.0  0.98706  0.47520  0.57540  1.0000
  C   C4        1.0  0.01294  0.52480  0.07540  1.0000
  H   H1        1.0  0.53030  0.57350  0.51950  1.0000
  H   H2        1.0  0.46970  0.42650  0.01950  1.0000
  H   H3        1.0  0.03030  0.42650  0.51950  1.0000
  H   H4        1.0  0.96970  0.57350  0.01950  1.0000
  C   C5        1.0  0.26405  0.92340  0.56930  1.0000
  C   C6        1.0  0.73595  0.07660  0.06930  1.0000
  C   C7        1.0  0.76405  0.07660  0.56930  1.0000
  C   C8        1.0  0.23595  0.92340  0.06930  1.0000
  H   H5        1.0  0.25430  0.06290  0.59160  1.0000
  H   H6        1.0  0.74570  0.93710  0.09160  1.0000
  H   H7        1.0  0.75430  0.93710  0.59160  1.0000
  H   H8        1.0  0.24570  0.06290  0.09160  1.0000
  C   C9        1.0  0.36244  0.29320  0.28250  1.0000
  C   C10       1.0  0.63756  0.70680  0.78250  1.0000
  C   C11       1.0  0.86244  0.70680  0.28250  1.0000
  C   C12       1.0  0.13756  0.29320  0.78250  1.0000
  H   H9        1.0  0.36360  0.27760  0.40700  1.0000
  H   H10       1.0  0.63640  0.72240  0.90700  1.0000
  H   H11       1.0  0.86360  0.72240  0.40700  1.0000
  H   H12       1.0  0.13640  0.27760  0.90700  1.0000
  C   C13       1.0  0.54356  0.07790  0.35950  1.0000
  C   C14       1.0  0.45644  0.92210  0.85950  1.0000
  C   C15       1.0  0.04356  0.92210  0.35950  1.0000
  C   C16       1.0  0.95644  0.07790  0.85950  1.0000
  H   H13       1.0  0.55440  0.08060  0.23700  1.0000
  H   H14       1.0  0.44560  0.91940  0.73700  1.0000
  H   H15       1.0  0.05440  0.91940  0.23700  1.0000
  H   H16       1.0  0.94560  0.08060  0.73700  1.0000
