data_image0
_chemical_formula_structural       Li4Zn16O96C24H8C16H8C16H8C24H8C16H8C16H8C40H8C16H8C16H8C8
_chemical_formula_sum              "Li4 Zn16 O96 C192 H72"
_cell_length_a       12.26
_cell_length_b       30.207
_cell_length_c       22.98
_cell_angle_alpha    90
_cell_angle_beta     94.983
_cell_angle_gamma    90

_space_group_name_H-M_alt    "P 1"
_space_group_IT_number       1

loop_
  _space_group_symop_operation_xyz
  'x, y, z'

loop_
  _atom_site_type_symbol
  _atom_site_label
  _atom_site_symmetry_multiplicity
  _atom_site_fract_x
  _atom_site_fract_y
  _atom_site_fract_z
  _atom_site_occupancy
  Li  Li1       1.0  0.00000  0.55460  0.25000  1.0000
  Li  Li2       1.0  0.50000  0.05460  0.25000  1.0000
  Li  Li3       1.0  0.00000  0.44540  0.75000  1.0000
  Li  Li4       1.0  0.50000  0.94540  0.75000  1.0000
  Zn  Zn1       1.0  0.25964  0.58149  0.33833  1.0000
  Zn  Zn2       1.0  0.74036  0.58149  0.16167  1.0000
  Zn  Zn3       1.0  0.75964  0.08149  0.33833  1.0000
  Zn  Zn4       1.0  0.24036  0.08149  0.16167  1.0000
  Zn  Zn5       1.0  0.74036  0.41851  0.66167  1.0000
  Zn  Zn6       1.0  0.25964  0.41851  0.83833  1.0000
  Zn  Zn7       1.0  0.24036  0.91851  0.66167  1.0000
  Zn  Zn8       1.0  0.75964  0.91851  0.83833  1.0000
  Zn  Zn9       1.0  0.31666  0.62992  0.48519  1.0000
  Zn  Zn10      1.0  0.68334  0.62992  0.01481  1.0000
  Zn  Zn11      1.0  0.81666  0.12992  0.48519  1.0000
  Zn  Zn12      1.0  0.18334  0.12992  0.01481  1.0000
  Zn  Zn13      1.0  0.68334  0.37008  0.51481  1.0000
  Zn  Zn14      1.0  0.31666  0.37008  0.98519  1.0000
  Zn  Zn15      1.0  0.18334  0.87008  0.51481  1.0000
  Zn  Zn16      1.0  0.81666  0.87008  0.98519  1.0000
  O   O1        1.0  0.45800  0.60313  0.46955  1.0000
  O   O2        1.0  0.54200  0.60313  0.03045  1.0000
  O   O3        1.0  0.95800  0.10313  0.46955  1.0000
  O   O4        1.0  0.04200  0.10313  0.03045  1.0000
  O   O5        1.0  0.54200  0.39687  0.53045  1.0000
  O   O6        1.0  0.45800  0.39687  0.96955  1.0000
  O   O7        1.0  0.04200  0.89687  0.53045  1.0000
  O   O8        1.0  0.95800  0.89687  0.96955  1.0000
  O   O9        1.0  0.41100  0.59016  0.37542  1.0000
  O   O10       1.0  0.58900  0.59016  0.12458  1.0000
  O   O11       1.0  0.91100  0.09016  0.37542  1.0000
  O   O12       1.0  0.08900  0.09016  0.12458  1.0000
  O   O13       1.0  0.58900  0.40984  0.62458  1.0000
  O   O14       1.0  0.41100  0.40984  0.87542  1.0000
  O   O15       1.0  0.08900  0.90984  0.62458  1.0000
  O   O16       1.0  0.91100  0.90984  0.87542  1.0000
  O   O17       1.0  0.86710  0.58201  0.27184  1.0000
  O   O18       1.0  0.13290  0.58201  0.22816  1.0000
  O   O19       1.0  0.36710  0.08201  0.27184  1.0000
  O   O20       1.0  0.63290  0.08201  0.22816  1.0000
  O   O21       1.0  0.13290  0.41799  0.72816  1.0000
  O   O22       1.0  0.86710  0.41799  0.77184  1.0000
  O   O23       1.0  0.63290  0.91799  0.72816  1.0000
  O   O24       1.0  0.36710  0.91799  0.77184  1.0000
  O   O25       1.0  0.69050  0.57578  0.24037  1.0000
  O   O26       1.0  0.30950  0.57578  0.25963  1.0000
  O   O27       1.0  0.19050  0.07578  0.24037  1.0000
  O   O28       1.0  0.80950  0.07578  0.25963  1.0000
  O   O29       1.0  0.30950  0.42422  0.75963  1.0000
  O   O30       1.0  0.69050  0.42422  0.74037  1.0000
  O   O31       1.0  0.80950  0.92422  0.75963  1.0000
  O   O32       1.0  0.19050  0.92422  0.74037  1.0000
  O   O33       1.0  0.19020  0.59433  0.49117  1.0000
  O   O34       1.0  0.80980  0.59433  0.00883  1.0000
  O   O35       1.0  0.69020  0.09433  0.49117  1.0000
  O   O36       1.0  0.30980  0.09433  0.00883  1.0000
  O   O37       1.0  0.80980  0.40567  0.50883  1.0000
  O   O38       1.0  0.19020  0.40567  0.99117  1.0000
  O   O39       1.0  0.30980  0.90567  0.50883  1.0000
  O   O40       1.0  0.69020  0.90567  0.99117  1.0000
  O   O41       1.0  0.23910  0.56423  0.57730  1.0000
  O   O42       1.0  0.76090  0.56423  0.92270  1.0000
  O   O43       1.0  0.73910  0.06423  0.57730  1.0000
  O   O44       1.0  0.26090  0.06423  0.92270  1.0000
  O   O45       1.0  0.76090  0.43577  0.42270  1.0000
  O   O46       1.0  0.23910  0.43577  0.07730  1.0000
  O   O47       1.0  0.26090  0.93577  0.42270  1.0000
  O   O48       1.0  0.73910  0.93577  0.07730  1.0000
  O   O49       1.0  0.95500  0.47904  0.67660  1.0000
  O   O50       1.0  0.04500  0.47904  0.82340  1.0000
  O   O51       1.0  0.45500  0.97904  0.67660  1.0000
  O   O52       1.0  0.54500  0.97904  0.82340  1.0000
  O   O53       1.0  0.04500  0.52096  0.32340  1.0000
  O   O54       1.0  0.95500  0.52096  0.17660  1.0000
  O   O55       1.0  0.54500  0.02096  0.32340  1.0000
  O   O56       1.0  0.45500  0.02096  0.17660  1.0000
  O   O57       1.0  0.78850  0.47186  0.62890  1.0000
  O   O58       1.0  0.21150  0.47186  0.87110  1.0000
  O   O59       1.0  0.28850  0.97186  0.62890  1.0000
  O   O60       1.0  0.71150  0.97186  0.87110  1.0000
  O   O61       1.0  0.21150  0.52814  0.37110  1.0000
  O   O62       1.0  0.78850  0.52814  0.12890  1.0000
  O   O63       1.0  0.71150  0.02814  0.37110  1.0000
  O   O64       1.0  0.28850  0.02814  0.12890  1.0000
  O   O65       1.0  0.26260  0.67227  0.42315  1.0000
  O   O66       1.0  0.73740  0.67227  0.07685  1.0000
  O   O67       1.0  0.76260  0.17227  0.42315  1.0000
  O   O68       1.0  0.23740  0.17227  0.07685  1.0000
  O   O69       1.0  0.73740  0.32773  0.57685  1.0000
  O   O70       1.0  0.26260  0.32773  0.92315  1.0000
  O   O71       1.0  0.23740  0.82773  0.57685  1.0000
  O   O72       1.0  0.76260  0.82773  0.92315  1.0000
  O   O73       1.0  0.17850  0.63505  0.34767  1.0000
  O   O74       1.0  0.82150  0.63505  0.15233  1.0000
  O   O75       1.0  0.67850  0.13505  0.34767  1.0000
  O   O76       1.0  0.32150  0.13505  0.15233  1.0000
  O   O77       1.0  0.82150  0.36495  0.65233  1.0000
  O   O78       1.0  0.17850  0.36495  0.84767  1.0000
  O   O79       1.0  0.32150  0.86495  0.65233  1.0000
  O   O80       1.0  0.67850  0.86495  0.84767  1.0000
  O   O81       1.0  0.15630  0.82536  0.45480  1.0000
  O   O82       1.0  0.84370  0.82536  0.04520  1.0000
  O   O83       1.0  0.65630  0.32536  0.45480  1.0000
  O   O84       1.0  0.34370  0.32536  0.04520  1.0000
  O   O85       1.0  0.84370  0.17464  0.54520  1.0000
  O   O86       1.0  0.15630  0.17464  0.95480  1.0000
  O   O87       1.0  0.34370  0.67464  0.54520  1.0000
  O   O88       1.0  0.65630  0.67464  0.95480  1.0000
  O   O89       1.0  0.07600  0.86573  0.38338  1.0000
  O   O90       1.0  0.92400  0.86573  0.11662  1.0000
  O   O91       1.0  0.57600  0.36573  0.38338  1.0000
  O   O92       1.0  0.42400  0.36573  0.11662  1.0000
  O   O93       1.0  0.92400  0.13427  0.61662  1.0000
  O   O94       1.0  0.07600  0.13427  0.88338  1.0000
  O   O95       1.0  0.42400  0.63427  0.61662  1.0000
  O   O96       1.0  0.57600  0.63427  0.88338  1.0000
  C   C1        1.0  0.47970  0.59222  0.41900  1.0000
  C   C2        1.0  0.52030  0.59222  0.08100  1.0000
  C   C3        1.0  0.97970  0.09222  0.41900  1.0000
  C   C4        1.0  0.02030  0.09222  0.08100  1.0000
  C   C5        1.0  0.52030  0.40778  0.58100  1.0000
  C   C6        1.0  0.47970  0.40778  0.91900  1.0000
  C   C7        1.0  0.02030  0.90778  0.58100  1.0000
  C   C8        1.0  0.97970  0.90778  0.91900  1.0000
  C   C9        1.0  0.59570  0.58427  0.40974  1.0000
  C   C10       1.0  0.40430  0.58427  0.09026  1.0000
  C   C11       1.0  0.09570  0.08427  0.40974  1.0000
  C   C12       1.0  0.90430  0.08427  0.09026  1.0000
  C   C13       1.0  0.40430  0.41573  0.59026  1.0000
  C   C14       1.0  0.59570  0.41573  0.90974  1.0000
  C   C15       1.0  0.90430  0.91573  0.59026  1.0000
  C   C16       1.0  0.09570  0.91573  0.90974  1.0000
  C   C17       1.0  0.62540  0.58508  0.35284  1.0000
  C   C18       1.0  0.37460  0.58508  0.14716  1.0000
  C   C19       1.0  0.12540  0.08508  0.35284  1.0000
  C   C20       1.0  0.87460  0.08508  0.14716  1.0000
  C   C21       1.0  0.37460  0.41492  0.64716  1.0000
  C   C22       1.0  0.62540  0.41492  0.85284  1.0000
  C   C23       1.0  0.87460  0.91492  0.64716  1.0000
  C   C24       1.0  0.12540  0.91492  0.85284  1.0000
  H   H1        1.0  0.57340  0.59090  0.32190  1.0000
  H   H2        1.0  0.42660  0.59090  0.17810  1.0000
  H   H3        1.0  0.07340  0.09090  0.32190  1.0000
  H   H4        1.0  0.92660  0.09090  0.17810  1.0000
  H   H5        1.0  0.42660  0.40910  0.67810  1.0000
  H   H6        1.0  0.57340  0.40910  0.82190  1.0000
  H   H7        1.0  0.92660  0.90910  0.67810  1.0000
  H   H8        1.0  0.07340  0.90910  0.82190  1.0000
  C   C25       1.0  0.73630  0.57685  0.34259  1.0000
  C   C26       1.0  0.26370  0.57685  0.15741  1.0000
  C   C27       1.0  0.23630  0.07685  0.34259  1.0000
  C   C28       1.0  0.76370  0.07685  0.15741  1.0000
  C   C29       1.0  0.26370  0.42315  0.65741  1.0000
  C   C30       1.0  0.73630  0.42315  0.84259  1.0000
  C   C31       1.0  0.76370  0.92315  0.65741  1.0000
  C   C32       1.0  0.23630  0.92315  0.84259  1.0000
  C   C33       1.0  0.81340  0.56883  0.38899  1.0000
  C   C34       1.0  0.18660  0.56883  0.11101  1.0000
  C   C35       1.0  0.31340  0.06883  0.38899  1.0000
  C   C36       1.0  0.68660  0.06883  0.11101  1.0000
  C   C37       1.0  0.18660  0.43117  0.61101  1.0000
  C   C38       1.0  0.81340  0.43117  0.88899  1.0000
  C   C39       1.0  0.68660  0.93117  0.61101  1.0000
  C   C40       1.0  0.31340  0.93117  0.88899  1.0000
  H   H9        1.0  0.88620  0.56420  0.38210  1.0000
  H   H10       1.0  0.11380  0.56420  0.11790  1.0000
  H   H11       1.0  0.38620  0.06420  0.38210  1.0000
  H   H12       1.0  0.61380  0.06420  0.11790  1.0000
  H   H13       1.0  0.11380  0.43580  0.61790  1.0000
  H   H14       1.0  0.88620  0.43580  0.88210  1.0000
  H   H15       1.0  0.61380  0.93580  0.61790  1.0000
  H   H16       1.0  0.38620  0.93580  0.88210  1.0000
  C   C41       1.0  0.78230  0.56757  0.44639  1.0000
  C   C42       1.0  0.21770  0.56757  0.05361  1.0000
  C   C43       1.0  0.28230  0.06757  0.44639  1.0000
  C   C44       1.0  0.71770  0.06757  0.05361  1.0000
  C   C45       1.0  0.21770  0.43243  0.55361  1.0000
  C   C46       1.0  0.78230  0.43243  0.94639  1.0000
  C   C47       1.0  0.71770  0.93243  0.55361  1.0000
  C   C48       1.0  0.28230  0.93243  0.94639  1.0000
  C   C49       1.0  0.67420  0.57598  0.45562  1.0000
  C   C50       1.0  0.32580  0.57598  0.04438  1.0000
  C   C51       1.0  0.17420  0.07598  0.45562  1.0000
  C   C52       1.0  0.82580  0.07598  0.04438  1.0000
  C   C53       1.0  0.32580  0.42402  0.54438  1.0000
  C   C54       1.0  0.67420  0.42402  0.95562  1.0000
  C   C55       1.0  0.82580  0.92402  0.54438  1.0000
  C   C56       1.0  0.17420  0.92402  0.95562  1.0000
  H   H17       1.0  0.65360  0.57610  0.49360  1.0000
  H   H18       1.0  0.34640  0.57610  0.00640  1.0000
  H   H19       1.0  0.15360  0.07610  0.49360  1.0000
  H   H20       1.0  0.84640  0.07610  0.00640  1.0000
  H   H21       1.0  0.34640  0.42390  0.50640  1.0000
  H   H22       1.0  0.65360  0.42390  0.99360  1.0000
  H   H23       1.0  0.84640  0.92390  0.50640  1.0000
  H   H24       1.0  0.15360  0.92390  0.99360  1.0000
  C   C57       1.0  0.76860  0.57847  0.28100  1.0000
  C   C58       1.0  0.23140  0.57847  0.21900  1.0000
  C   C59       1.0  0.26860  0.07847  0.28100  1.0000
  C   C60       1.0  0.73140  0.07847  0.21900  1.0000
  C   C61       1.0  0.23140  0.42153  0.71900  1.0000
  C   C62       1.0  0.76860  0.42153  0.78100  1.0000
  C   C63       1.0  0.73140  0.92153  0.71900  1.0000
  C   C64       1.0  0.26860  0.92153  0.78100  1.0000
  C   C65       1.0  0.86680  0.55630  0.49562  1.0000
  C   C66       1.0  0.13320  0.55630  0.00438  1.0000
  C   C67       1.0  0.36680  0.05630  0.49562  1.0000
  C   C68       1.0  0.63320  0.05630  0.00438  1.0000
  C   C69       1.0  0.13320  0.44370  0.50438  1.0000
  C   C70       1.0  0.86680  0.44370  0.99562  1.0000
  C   C71       1.0  0.63320  0.94370  0.50438  1.0000
  C   C72       1.0  0.36680  0.94370  0.99562  1.0000
  C   C73       1.0  0.97370  0.56933  0.49480  1.0000
  C   C74       1.0  0.02630  0.56933  0.00520  1.0000
  C   C75       1.0  0.47370  0.06933  0.49480  1.0000
  C   C76       1.0  0.52630  0.06933  0.00520  1.0000
  C   C77       1.0  0.02630  0.43067  0.50520  1.0000
  C   C78       1.0  0.97370  0.43067  0.99480  1.0000
  C   C79       1.0  0.52630  0.93067  0.50520  1.0000
  C   C80       1.0  0.47370  0.93067  0.99480  1.0000
  H   H25       1.0  0.99440  0.58590  0.46350  1.0000
  H   H26       1.0  0.00560  0.58590  0.03650  1.0000
  H   H27       1.0  0.49440  0.08590  0.46350  1.0000
  H   H28       1.0  0.50560  0.08590  0.03650  1.0000
  H   H29       1.0  0.00560  0.41410  0.53650  1.0000
  H   H30       1.0  0.99440  0.41410  0.96350  1.0000
  H   H31       1.0  0.50560  0.91410  0.53650  1.0000
  H   H32       1.0  0.49440  0.91410  0.96350  1.0000
  C   C81       1.0  0.05170  0.55835  0.53990  1.0000
  C   C82       1.0  0.94830  0.55835  0.96010  1.0000
  C   C83       1.0  0.55170  0.05835  0.53990  1.0000
  C   C84       1.0  0.44830  0.05835  0.96010  1.0000
  C   C85       1.0  0.94830  0.44165  0.46010  1.0000
  C   C86       1.0  0.05170  0.44165  0.03990  1.0000
  C   C87       1.0  0.44830  0.94165  0.46010  1.0000
  C   C88       1.0  0.55170  0.94165  0.03990  1.0000
  C   C89       1.0  0.02410  0.53234  0.58630  1.0000
  C   C90       1.0  0.97590  0.53234  0.91370  1.0000
  C   C91       1.0  0.52410  0.03234  0.58630  1.0000
  C   C92       1.0  0.47590  0.03234  0.91370  1.0000
  C   C93       1.0  0.97590  0.46766  0.41370  1.0000
  C   C94       1.0  0.02410  0.46766  0.08630  1.0000
  C   C95       1.0  0.47590  0.96766  0.41370  1.0000
  C   C96       1.0  0.52410  0.96766  0.08630  1.0000
  H   H33       1.0  0.07660  0.52460  0.61620  1.0000
  H   H34       1.0  0.92340  0.52460  0.88380  1.0000
  H   H35       1.0  0.57660  0.02460  0.61620  1.0000
  H   H36       1.0  0.42340  0.02460  0.88380  1.0000
  H   H37       1.0  0.92340  0.47540  0.38380  1.0000
  H   H38       1.0  0.07660  0.47540  0.11620  1.0000
  H   H39       1.0  0.42340  0.97540  0.38380  1.0000
  H   H40       1.0  0.57660  0.97540  0.11620  1.0000
  C   C97       1.0  0.91770  0.51833  0.58707  1.0000
  C   C98       1.0  0.08230  0.51833  0.91293  1.0000
  C   C99       1.0  0.41770  0.01833  0.58707  1.0000
  C   C100      1.0  0.58230  0.01833  0.91293  1.0000
  C   C101      1.0  0.08230  0.48167  0.41293  1.0000
  C   C102      1.0  0.91770  0.48167  0.08707  1.0000
  C   C103      1.0  0.58230  0.98167  0.41293  1.0000
  C   C104      1.0  0.41770  0.98167  0.08707  1.0000
  C   C105      1.0  0.83800  0.52990  0.54190  1.0000
  C   C106      1.0  0.16200  0.52990  0.95810  1.0000
  C   C107      1.0  0.33800  0.02990  0.54190  1.0000
  C   C108      1.0  0.66200  0.02990  0.95810  1.0000
  C   C109      1.0  0.16200  0.47010  0.45810  1.0000
  C   C110      1.0  0.83800  0.47010  0.04190  1.0000
  C   C111      1.0  0.66200  0.97010  0.45810  1.0000
  C   C112      1.0  0.33800  0.97010  0.04190  1.0000
  H   H41       1.0  0.76630  0.52000  0.54280  1.0000
  H   H42       1.0  0.23370  0.52000  0.95720  1.0000
  H   H43       1.0  0.26630  0.02000  0.54280  1.0000
  H   H44       1.0  0.73370  0.02000  0.95720  1.0000
  H   H45       1.0  0.23370  0.48000  0.45720  1.0000
  H   H46       1.0  0.76630  0.48000  0.04280  1.0000
  H   H47       1.0  0.73370  0.98000  0.45720  1.0000
  H   H48       1.0  0.26630  0.98000  0.04280  1.0000
  C   C113      1.0  0.17160  0.57300  0.53620  1.0000
  C   C114      1.0  0.82840  0.57300  0.96380  1.0000
  C   C115      1.0  0.67160  0.07300  0.53620  1.0000
  C   C116      1.0  0.32840  0.07300  0.96380  1.0000
  C   C117      1.0  0.82840  0.42700  0.46380  1.0000
  C   C118      1.0  0.17160  0.42700  0.03620  1.0000
  C   C119      1.0  0.32840  0.92700  0.46380  1.0000
  C   C120      1.0  0.67160  0.92700  0.03620  1.0000
  C   C121      1.0  0.88520  0.48705  0.63460  1.0000
  C   C122      1.0  0.11480  0.48705  0.86540  1.0000
  C   C123      1.0  0.38520  0.98705  0.63460  1.0000
  C   C124      1.0  0.61480  0.98705  0.86540  1.0000
  C   C125      1.0  0.11480  0.51295  0.36540  1.0000
  C   C126      1.0  0.88520  0.51295  0.13460  1.0000
  C   C127      1.0  0.61480  0.01295  0.36540  1.0000
  C   C128      1.0  0.38520  0.01295  0.13460  1.0000
  C   C129      1.0  0.19840  0.66943  0.37710  1.0000
  C   C130      1.0  0.80160  0.66943  0.12290  1.0000
  C   C131      1.0  0.69840  0.16943  0.37710  1.0000
  C   C132      1.0  0.30160  0.16943  0.12290  1.0000
  C   C133      1.0  0.80160  0.33057  0.62290  1.0000
  C   C134      1.0  0.19840  0.33057  0.87710  1.0000
  C   C135      1.0  0.30160  0.83057  0.62290  1.0000
  C   C136      1.0  0.69840  0.83057  0.87710  1.0000
  C   C137      1.0  0.14560  0.71149  0.35530  1.0000
  C   C138      1.0  0.85440  0.71149  0.14470  1.0000
  C   C139      1.0  0.64560  0.21149  0.35530  1.0000
  C   C140      1.0  0.35440  0.21149  0.14470  1.0000
  C   C141      1.0  0.85440  0.28851  0.64470  1.0000
  C   C142      1.0  0.14560  0.28851  0.85530  1.0000
  C   C143      1.0  0.35440  0.78851  0.64470  1.0000
  C   C144      1.0  0.64560  0.78851  0.85530  1.0000
  C   C145      1.0  0.15210  0.74944  0.38875  1.0000
  C   C146      1.0  0.84790  0.74944  0.11125  1.0000
  C   C147      1.0  0.65210  0.24944  0.38875  1.0000
  C   C148      1.0  0.34790  0.24944  0.11125  1.0000
  C   C149      1.0  0.84790  0.25056  0.61125  1.0000
  C   C150      1.0  0.15210  0.25056  0.88875  1.0000
  C   C151      1.0  0.34790  0.75056  0.61125  1.0000
  C   C152      1.0  0.65210  0.75056  0.88875  1.0000
  H   H49       1.0  0.19010  0.74900  0.42560  1.0000
  H   H50       1.0  0.80990  0.74900  0.07440  1.0000
  H   H51       1.0  0.69010  0.24900  0.42560  1.0000
  H   H52       1.0  0.30990  0.24900  0.07440  1.0000
  H   H53       1.0  0.80990  0.25100  0.57440  1.0000
  H   H54       1.0  0.19010  0.25100  0.92560  1.0000
  H   H55       1.0  0.30990  0.75100  0.57440  1.0000
  H   H56       1.0  0.69010  0.75100  0.92560  1.0000
  C   C153      1.0  0.10280  0.78820  0.36800  1.0000
  C   C154      1.0  0.89720  0.78820  0.13200  1.0000
  C   C155      1.0  0.60280  0.28820  0.36800  1.0000
  C   C156      1.0  0.39720  0.28820  0.13200  1.0000
  C   C157      1.0  0.89720  0.21180  0.63200  1.0000
  C   C158      1.0  0.10280  0.21180  0.86800  1.0000
  C   C159      1.0  0.39720  0.71180  0.63200  1.0000
  C   C160      1.0  0.60280  0.71180  0.86800  1.0000
  C   C161      1.0  0.04260  0.78836  0.31310  1.0000
  C   C162      1.0  0.95740  0.78836  0.18690  1.0000
  C   C163      1.0  0.54260  0.28836  0.31310  1.0000
  C   C164      1.0  0.45740  0.28836  0.18690  1.0000
  C   C165      1.0  0.95740  0.21164  0.68690  1.0000
  C   C166      1.0  0.04260  0.21164  0.81310  1.0000
  C   C167      1.0  0.45740  0.71164  0.68690  1.0000
  C   C168      1.0  0.54260  0.71164  0.81310  1.0000
  H   H57       1.0  0.00880  0.81430  0.29940  1.0000
  H   H58       1.0  0.99120  0.81430  0.20060  1.0000
  H   H59       1.0  0.50880  0.31430  0.29940  1.0000
  H   H60       1.0  0.49120  0.31430  0.20060  1.0000
  H   H61       1.0  0.99120  0.18570  0.70060  1.0000
  H   H62       1.0  0.00880  0.18570  0.79940  1.0000
  H   H63       1.0  0.49120  0.68570  0.70060  1.0000
  H   H64       1.0  0.50880  0.68570  0.79940  1.0000
  C   C169      1.0  0.03270  0.75031  0.27893  1.0000
  C   C170      1.0  0.96730  0.75031  0.22107  1.0000
  C   C171      1.0  0.53270  0.25031  0.27893  1.0000
  C   C172      1.0  0.46730  0.25031  0.22107  1.0000
  C   C173      1.0  0.96730  0.24969  0.72107  1.0000
  C   C174      1.0  0.03270  0.24969  0.77893  1.0000
  C   C175      1.0  0.46730  0.74969  0.72107  1.0000
  C   C176      1.0  0.53270  0.74969  0.77893  1.0000
  C   C177      1.0  0.08450  0.71208  0.30030  1.0000
  C   C178      1.0  0.91550  0.71208  0.19970  1.0000
  C   C179      1.0  0.58450  0.21208  0.30030  1.0000
  C   C180      1.0  0.41550  0.21208  0.19970  1.0000
  C   C181      1.0  0.91550  0.28792  0.69970  1.0000
  C   C182      1.0  0.08450  0.28792  0.80030  1.0000
  C   C183      1.0  0.41550  0.78792  0.69970  1.0000
  C   C184      1.0  0.58450  0.78792  0.80030  1.0000
  H   H65       1.0  0.07890  0.68630  0.27800  1.0000
  H   H66       1.0  0.92110  0.68630  0.22200  1.0000
  H   H67       1.0  0.57890  0.18630  0.27800  1.0000
  H   H68       1.0  0.42110  0.18630  0.22200  1.0000
  H   H69       1.0  0.92110  0.31370  0.72200  1.0000
  H   H70       1.0  0.07890  0.31370  0.77800  1.0000
  H   H71       1.0  0.42110  0.81370  0.72200  1.0000
  H   H72       1.0  0.57890  0.81370  0.77800  1.0000
  C   C185      1.0  0.11050  0.83033  0.40420  1.0000
  C   C186      1.0  0.88950  0.83033  0.09580  1.0000
  C   C187      1.0  0.61050  0.33033  0.40420  1.0000
  C   C188      1.0  0.38950  0.33033  0.09580  1.0000
  C   C189      1.0  0.88950  0.16967  0.59580  1.0000
  C   C190      1.0  0.11050  0.16967  0.90420  1.0000
  C   C191      1.0  0.38950  0.66967  0.59580  1.0000
  C   C192      1.0  0.61050  0.66967  0.90420  1.0000
