data_image0
_chemical_formula_structural       Mo24Ni4P8N16O96C4H4C4H4C4H4C8H4C4H4C8H4C4H4C4H4C12H4C4H4C4H4C8H4C4H4C8H4C4H4C4H4C12H8C4H8C4H8C4H8
_chemical_formula_sum              "Mo24 Ni4 P8 N16 O96 C112 H96"
_cell_length_a       26.476
_cell_length_b       14.5799
_cell_length_c       19.8146
_cell_angle_alpha    90
_cell_angle_beta     103.771
_cell_angle_gamma    90

_space_group_name_H-M_alt    "P 1"
_space_group_IT_number       1

loop_
  _space_group_symop_operation_xyz
  'x, y, z'

loop_
  _atom_site_type_symbol
  _atom_site_label
  _atom_site_symmetry_multiplicity
  _atom_site_fract_x
  _atom_site_fract_y
  _atom_site_fract_z
  _atom_site_occupancy
  Mo  Mo1       1.0  0.70918  0.48436  0.44602  1.0000
  Mo  Mo2       1.0  0.29082  0.98436  0.05398  1.0000
  Mo  Mo3       1.0  0.29082  0.51564  0.55398  1.0000
  Mo  Mo4       1.0  0.70918  0.01564  0.94602  1.0000
  Mo  Mo5       1.0  0.81448  0.59134  0.36243  1.0000
  Mo  Mo6       1.0  0.18552  0.09134  0.13757  1.0000
  Mo  Mo7       1.0  0.18552  0.40866  0.63757  1.0000
  Mo  Mo8       1.0  0.81448  0.90866  0.86243  1.0000
  Mo  Mo9       1.0  0.81730  0.68870  0.87800  1.0000
  Mo  Mo10      1.0  0.18270  0.18870  0.62200  1.0000
  Mo  Mo11      1.0  0.18270  0.31130  0.12200  1.0000
  Mo  Mo12      1.0  0.81730  0.81130  0.37800  1.0000
  Mo  Mo13      1.0  0.68040  0.62323  0.88058  1.0000
  Mo  Mo14      1.0  0.31960  0.12323  0.61942  1.0000
  Mo  Mo15      1.0  0.31960  0.37677  0.11942  1.0000
  Mo  Mo16      1.0  0.68040  0.87677  0.38058  1.0000
  Mo  Mo17      1.0  0.61952  0.81547  0.87654  1.0000
  Mo  Mo18      1.0  0.38048  0.31547  0.62346  1.0000
  Mo  Mo19      1.0  0.38048  0.18453  0.12346  1.0000
  Mo  Mo20      1.0  0.61952  0.68453  0.37654  1.0000
  Mo  Mo21      1.0  0.68107  0.00296  0.78746  1.0000
  Mo  Mo22      1.0  0.31893  0.50296  0.71254  1.0000
  Mo  Mo23      1.0  0.31893  0.99704  0.21254  1.0000
  Mo  Mo24      1.0  0.68107  0.49704  0.28746  1.0000
  Ni  Ni1       1.0  0.53952  0.94860  0.73803  1.0000
  Ni  Ni2       1.0  0.46048  0.44860  0.76197  1.0000
  Ni  Ni3       1.0  0.46048  0.05140  0.26197  1.0000
  Ni  Ni4       1.0  0.53952  0.55140  0.23803  1.0000
  P   P1        1.0  0.74863  0.69576  0.48270  1.0000
  P   P2        1.0  0.25137  0.19576  0.01730  1.0000
  P   P3        1.0  0.25137  0.30424  0.51730  1.0000
  P   P4        1.0  0.74863  0.80424  0.98270  1.0000
  P   P5        1.0  0.70760  0.78668  0.76536  1.0000
  P   P6        1.0  0.29240  0.28668  0.73464  1.0000
  P   P7        1.0  0.29240  0.21332  0.23464  1.0000
  P   P8        1.0  0.70760  0.71332  0.26536  1.0000
  N   N1        1.0  0.46470  0.89660  0.73080  1.0000
  N   N2        1.0  0.53530  0.39660  0.76920  1.0000
  N   N3        1.0  0.53530  0.10340  0.26920  1.0000
  N   N4        1.0  0.46470  0.60340  0.23080  1.0000
  N   N5        1.0  0.52270  0.01250  0.82290  1.0000
  N   N6        1.0  0.47730  0.51250  0.67710  1.0000
  N   N7        1.0  0.47730  0.98750  0.17710  1.0000
  N   N8        1.0  0.52270  0.48750  0.32290  1.0000
  N   N9        1.0  0.55350  0.89070  0.64940  1.0000
  N   N10       1.0  0.44650  0.39070  0.85060  1.0000
  N   N11       1.0  0.44650  0.10930  0.35060  1.0000
  N   N12       1.0  0.55350  0.60930  0.14940  1.0000
  N   N13       1.0  0.52240  0.06020  0.67100  1.0000
  N   N14       1.0  0.47760  0.56020  0.82900  1.0000
  N   N15       1.0  0.47760  0.93980  0.32900  1.0000
  N   N16       1.0  0.52240  0.43980  0.17100  1.0000
  O   O1        1.0  0.70550  0.07290  0.73360  1.0000
  O   O2        1.0  0.29450  0.57290  0.76640  1.0000
  O   O3        1.0  0.29450  0.92710  0.26640  1.0000
  O   O4        1.0  0.70550  0.42710  0.23360  1.0000
  O   O5        1.0  0.61460  0.00220  0.75350  1.0000
  O   O6        1.0  0.38540  0.50220  0.74650  1.0000
  O   O7        1.0  0.38540  0.99780  0.24650  1.0000
  O   O8        1.0  0.61460  0.49780  0.25350  1.0000
  O   O9        1.0  0.69040  0.88330  0.73960  1.0000
  O   O10       1.0  0.30960  0.38330  0.76040  1.0000
  O   O11       1.0  0.30960  0.11670  0.26040  1.0000
  O   O12       1.0  0.69040  0.61670  0.23960  1.0000
  O   O13       1.0  0.59130  0.84170  0.94270  1.0000
  O   O14       1.0  0.40870  0.34170  0.55730  1.0000
  O   O15       1.0  0.40870  0.15830  0.05730  1.0000
  O   O16       1.0  0.59130  0.65830  0.44270  1.0000
  O   O17       1.0  0.57160  0.83860  0.80170  1.0000
  O   O18       1.0  0.42840  0.33860  0.69830  1.0000
  O   O19       1.0  0.42840  0.16140  0.19830  1.0000
  O   O20       1.0  0.57160  0.66140  0.30170  1.0000
  O   O21       1.0  0.66110  0.55100  0.81230  1.0000
  O   O22       1.0  0.33890  0.05100  0.68770  1.0000
  O   O23       1.0  0.33890  0.44900  0.18770  1.0000
  O   O24       1.0  0.66110  0.94900  0.31230  1.0000
  O   O25       1.0  0.68700  0.55310  0.95210  1.0000
  O   O26       1.0  0.31300  0.05310  0.54790  1.0000
  O   O27       1.0  0.31300  0.44690  0.04790  1.0000
  O   O28       1.0  0.68700  0.94690  0.45210  1.0000
  O   O29       1.0  0.61610  0.68350  0.88070  1.0000
  O   O30       1.0  0.38390  0.18350  0.61930  1.0000
  O   O31       1.0  0.38390  0.31650  0.11930  1.0000
  O   O32       1.0  0.61610  0.81650  0.38070  1.0000
  O   O33       1.0  0.67330  0.75110  0.81190  1.0000
  O   O34       1.0  0.32670  0.25110  0.68810  1.0000
  O   O35       1.0  0.32670  0.24890  0.18810  1.0000
  O   O36       1.0  0.67330  0.74890  0.31190  1.0000
  O   O37       1.0  0.69710  0.74270  0.44970  1.0000
  O   O38       1.0  0.30290  0.24270  0.05030  1.0000
  O   O39       1.0  0.30290  0.25730  0.55030  1.0000
  O   O40       1.0  0.69710  0.75730  0.94970  1.0000
  O   O41       1.0  0.85300  0.52610  0.42570  1.0000
  O   O42       1.0  0.14700  0.02610  0.07430  1.0000
  O   O43       1.0  0.14700  0.47390  0.57430  1.0000
  O   O44       1.0  0.85300  0.97390  0.92570  1.0000
  O   O45       1.0  0.82560  0.54980  0.28680  1.0000
  O   O46       1.0  0.17440  0.04980  0.21320  1.0000
  O   O47       1.0  0.17440  0.45020  0.71320  1.0000
  O   O48       1.0  0.82560  0.95020  0.78680  1.0000
  O   O49       1.0  0.66420  0.45660  0.49160  1.0000
  O   O50       1.0  0.33580  0.95660  0.00840  1.0000
  O   O51       1.0  0.33580  0.54340  0.50840  1.0000
  O   O52       1.0  0.66420  0.04340  0.99160  1.0000
  O   O53       1.0  0.76110  0.41560  0.48190  1.0000
  O   O54       1.0  0.23890  0.91560  0.01810  1.0000
  O   O55       1.0  0.23890  0.58440  0.51810  1.0000
  O   O56       1.0  0.76110  0.08440  0.98190  1.0000
  O   O57       1.0  0.74880  0.53800  0.35960  1.0000
  O   O58       1.0  0.25120  0.03800  0.14040  1.0000
  O   O59       1.0  0.25120  0.46200  0.64040  1.0000
  O   O60       1.0  0.74880  0.96200  0.85960  1.0000
  O   O61       1.0  0.68250  0.41380  0.36300  1.0000
  O   O62       1.0  0.31750  0.91380  0.13700  1.0000
  O   O63       1.0  0.31750  0.58620  0.63700  1.0000
  O   O64       1.0  0.68250  0.08620  0.86300  1.0000
  O   O65       1.0  0.73880  0.59490  0.50160  1.0000
  O   O66       1.0  0.26120  0.09490  0.99840  1.0000
  O   O67       1.0  0.26120  0.40510  0.49840  1.0000
  O   O68       1.0  0.73880  0.90510  0.00160  1.0000
  O   O69       1.0  0.66160  0.58280  0.37760  1.0000
  O   O70       1.0  0.33840  0.08280  0.12240  1.0000
  O   O71       1.0  0.33840  0.41720  0.62240  1.0000
  O   O72       1.0  0.66160  0.91720  0.87760  1.0000
  O   O73       1.0  0.85520  0.64560  0.95340  1.0000
  O   O74       1.0  0.14480  0.14560  0.54660  1.0000
  O   O75       1.0  0.14480  0.35440  0.04660  1.0000
  O   O76       1.0  0.85520  0.85440  0.45340  1.0000
  O   O77       1.0  0.83450  0.62450  0.81430  1.0000
  O   O78       1.0  0.16550  0.12450  0.68570  1.0000
  O   O79       1.0  0.16550  0.37550  0.18570  1.0000
  O   O80       1.0  0.83450  0.87550  0.31430  1.0000
  O   O81       1.0  0.85660  0.70150  0.37060  1.0000
  O   O82       1.0  0.14340  0.20150  0.12940  1.0000
  O   O83       1.0  0.14340  0.29850  0.62940  1.0000
  O   O84       1.0  0.85660  0.79850  0.87060  1.0000
  O   O85       1.0  0.76540  0.78600  0.80050  1.0000
  O   O86       1.0  0.23460  0.28600  0.69950  1.0000
  O   O87       1.0  0.23460  0.21400  0.19950  1.0000
  O   O88       1.0  0.76540  0.71400  0.30050  1.0000
  O   O89       1.0  0.75190  0.63670  0.88040  1.0000
  O   O90       1.0  0.24810  0.13670  0.61960  1.0000
  O   O91       1.0  0.24810  0.36330  0.11960  1.0000
  O   O92       1.0  0.75190  0.86330  0.38040  1.0000
  O   O93       1.0  0.78850  0.69370  0.43780  1.0000
  O   O94       1.0  0.21150  0.19370  0.06220  1.0000
  O   O95       1.0  0.21150  0.30630  0.56220  1.0000
  O   O96       1.0  0.78850  0.80630  0.93780  1.0000
  C   C1        1.0  0.43770  0.83580  0.68750  1.0000
  C   C2        1.0  0.56230  0.33580  0.81250  1.0000
  C   C3        1.0  0.56230  0.16420  0.31250  1.0000
  C   C4        1.0  0.43770  0.66420  0.18750  1.0000
  H   H1        1.0  0.45110  0.81540  0.65080  1.0000
  H   H2        1.0  0.54890  0.31540  0.84920  1.0000
  H   H3        1.0  0.54890  0.18460  0.34920  1.0000
  H   H4        1.0  0.45110  0.68460  0.15080  1.0000
  C   C5        1.0  0.39000  0.80070  0.69410  1.0000
  C   C6        1.0  0.61000  0.30070  0.80590  1.0000
  C   C7        1.0  0.61000  0.19930  0.30590  1.0000
  C   C8        1.0  0.39000  0.69930  0.19410  1.0000
  H   H5        1.0  0.37270  0.75710  0.66270  1.0000
  H   H6        1.0  0.62730  0.25710  0.83730  1.0000
  H   H7        1.0  0.62730  0.24290  0.33730  1.0000
  H   H8        1.0  0.37270  0.74290  0.16270  1.0000
  C   C9        1.0  0.36940  0.82970  0.74560  1.0000
  C   C10       1.0  0.63060  0.32970  0.75440  1.0000
  C   C11       1.0  0.63060  0.17030  0.25440  1.0000
  C   C12       1.0  0.36940  0.67030  0.24560  1.0000
  H   H9        1.0  0.33750  0.80710  0.75000  1.0000
  H   H10       1.0  0.66250  0.30710  0.75000  1.0000
  H   H11       1.0  0.66250  0.19290  0.25000  1.0000
  H   H12       1.0  0.33750  0.69290  0.25000  1.0000
  C   C13       1.0  0.39620  0.89460  0.79280  1.0000
  C   C14       1.0  0.60380  0.39460  0.70720  1.0000
  C   C15       1.0  0.60380  0.10540  0.20720  1.0000
  C   C16       1.0  0.39620  0.60540  0.29280  1.0000
  C   C17       1.0  0.37830  0.93270  0.85200  1.0000
  C   C18       1.0  0.62170  0.43270  0.64800  1.0000
  C   C19       1.0  0.62170  0.06730  0.14800  1.0000
  C   C20       1.0  0.37830  0.56730  0.35200  1.0000
  H   H13       1.0  0.34590  0.91520  0.85830  1.0000
  H   H14       1.0  0.65410  0.41520  0.64170  1.0000
  H   H15       1.0  0.65410  0.08480  0.14170  1.0000
  H   H16       1.0  0.34590  0.58480  0.35830  1.0000
  C   C21       1.0  0.40690  0.99130  0.89670  1.0000
  C   C22       1.0  0.59310  0.49130  0.60330  1.0000
  C   C23       1.0  0.59310  0.00870  0.10330  1.0000
  C   C24       1.0  0.40690  0.50870  0.39670  1.0000
  H   H17       1.0  0.39420  0.01270  0.93370  1.0000
  H   H18       1.0  0.60580  0.51270  0.56630  1.0000
  H   H19       1.0  0.60580  0.98730  0.06630  1.0000
  H   H20       1.0  0.39420  0.48730  0.43370  1.0000
  C   C25       1.0  0.45640  0.02220  0.88990  1.0000
  C   C26       1.0  0.54360  0.52220  0.61010  1.0000
  C   C27       1.0  0.54360  0.97780  0.11010  1.0000
  C   C28       1.0  0.45640  0.47780  0.38990  1.0000
  C   C29       1.0  0.48930  0.08030  0.93660  1.0000
  C   C30       1.0  0.51070  0.58030  0.56340  1.0000
  C   C31       1.0  0.51070  0.91970  0.06340  1.0000
  C   C32       1.0  0.48930  0.41970  0.43660  1.0000
  H   H21       1.0  0.47890  0.10320  0.97500  1.0000
  H   H22       1.0  0.52110  0.60320  0.52500  1.0000
  H   H23       1.0  0.52110  0.89680  0.02500  1.0000
  H   H24       1.0  0.47890  0.39680  0.47500  1.0000
  C   C33       1.0  0.53640  0.10310  0.92620  1.0000
  C   C34       1.0  0.46360  0.60310  0.57380  1.0000
  C   C35       1.0  0.46360  0.89690  0.07380  1.0000
  C   C36       1.0  0.53640  0.39690  0.42620  1.0000
  H   H25       1.0  0.55830  0.14170  0.95740  1.0000
  H   H26       1.0  0.44170  0.64170  0.54260  1.0000
  H   H27       1.0  0.44170  0.85830  0.04260  1.0000
  H   H28       1.0  0.55830  0.35830  0.45740  1.0000
  C   C37       1.0  0.55250  0.06820  0.86730  1.0000
  C   C38       1.0  0.44750  0.56820  0.63270  1.0000
  C   C39       1.0  0.44750  0.93180  0.13270  1.0000
  C   C40       1.0  0.55250  0.43180  0.36730  1.0000
  H   H29       1.0  0.58480  0.08520  0.86030  1.0000
  H   H30       1.0  0.41520  0.58520  0.63970  1.0000
  H   H31       1.0  0.41520  0.91480  0.13970  1.0000
  H   H32       1.0  0.58480  0.41480  0.36030  1.0000
  C   C41       1.0  0.47520  0.98920  0.83230  1.0000
  C   C42       1.0  0.52480  0.48920  0.66770  1.0000
  C   C43       1.0  0.52480  0.01080  0.16770  1.0000
  C   C44       1.0  0.47520  0.51080  0.33230  1.0000
  C   C45       1.0  0.44470  0.92720  0.78410  1.0000
  C   C46       1.0  0.55530  0.42720  0.71590  1.0000
  C   C47       1.0  0.55530  0.07280  0.21590  1.0000
  C   C48       1.0  0.44470  0.57280  0.28410  1.0000
  C   C49       1.0  0.56540  0.80580  0.63710  1.0000
  C   C50       1.0  0.43460  0.30580  0.86290  1.0000
  C   C51       1.0  0.43460  0.19420  0.36290  1.0000
  C   C52       1.0  0.56540  0.69420  0.13710  1.0000
  H   H33       1.0  0.56250  0.76110  0.66950  1.0000
  H   H34       1.0  0.43750  0.26110  0.83050  1.0000
  H   H35       1.0  0.43750  0.23890  0.33050  1.0000
  H   H36       1.0  0.56250  0.73890  0.16950  1.0000
  C   C53       1.0  0.58200  0.77860  0.57810  1.0000
  C   C54       1.0  0.41800  0.27860  0.92190  1.0000
  C   C55       1.0  0.41800  0.22140  0.42190  1.0000
  C   C56       1.0  0.58200  0.72140  0.07810  1.0000
  H   H37       1.0  0.58970  0.71740  0.57170  1.0000
  H   H38       1.0  0.41030  0.21740  0.92830  1.0000
  H   H39       1.0  0.41030  0.28260  0.42830  1.0000
  H   H40       1.0  0.58970  0.78260  0.07170  1.0000
  C   C57       1.0  0.58690  0.84360  0.52980  1.0000
  C   C58       1.0  0.41310  0.34360  0.97020  1.0000
  C   C59       1.0  0.41310  0.15640  0.47020  1.0000
  C   C60       1.0  0.58690  0.65640  0.02980  1.0000
  H   H41       1.0  0.59820  0.82730  0.49050  1.0000
  H   H42       1.0  0.40180  0.32730  0.00950  1.0000
  H   H43       1.0  0.40180  0.17270  0.50950  1.0000
  H   H44       1.0  0.59820  0.67270  0.99050  1.0000
  C   C61       1.0  0.57450  0.93540  0.54100  1.0000
  C   C62       1.0  0.42550  0.43540  0.95900  1.0000
  C   C63       1.0  0.42550  0.06460  0.45900  1.0000
  C   C64       1.0  0.57450  0.56460  0.04100  1.0000
  C   C65       1.0  0.57820  0.00860  0.49490  1.0000
  C   C66       1.0  0.42180  0.50860  0.00510  1.0000
  C   C67       1.0  0.42180  0.99140  0.50510  1.0000
  C   C68       1.0  0.57820  0.49140  0.99490  1.0000
  H   H45       1.0  0.58980  0.99610  0.45510  1.0000
  H   H46       1.0  0.41020  0.49610  0.04490  1.0000
  H   H47       1.0  0.41020  0.00390  0.54490  1.0000
  H   H48       1.0  0.58980  0.50390  0.95510  1.0000
  C   C69       1.0  0.56530  0.09590  0.50720  1.0000
  C   C70       1.0  0.43470  0.59590  0.99280  1.0000
  C   C71       1.0  0.43470  0.90410  0.49280  1.0000
  C   C72       1.0  0.56530  0.40410  0.00720  1.0000
  H   H49       1.0  0.56900  0.14220  0.47640  1.0000
  H   H50       1.0  0.43100  0.64220  0.02360  1.0000
  H   H51       1.0  0.43100  0.85780  0.52360  1.0000
  H   H52       1.0  0.56900  0.35780  0.97640  1.0000
  C   C73       1.0  0.54590  0.11790  0.56770  1.0000
  C   C74       1.0  0.45410  0.61790  0.93230  1.0000
  C   C75       1.0  0.45410  0.88210  0.43230  1.0000
  C   C76       1.0  0.54590  0.38210  0.06770  1.0000
  C   C77       1.0  0.53160  0.20550  0.58220  1.0000
  C   C78       1.0  0.46840  0.70550  0.91780  1.0000
  C   C79       1.0  0.46840  0.79450  0.41780  1.0000
  C   C80       1.0  0.53160  0.29450  0.08220  1.0000
  H   H53       1.0  0.53580  0.25450  0.55400  1.0000
  H   H54       1.0  0.46420  0.75450  0.94600  1.0000
  H   H55       1.0  0.46420  0.74550  0.44600  1.0000
  H   H56       1.0  0.53580  0.24550  0.05400  1.0000
  C   C81       1.0  0.51110  0.21900  0.63910  1.0000
  C   C82       1.0  0.48890  0.71900  0.86090  1.0000
  C   C83       1.0  0.48890  0.78100  0.36090  1.0000
  C   C84       1.0  0.51110  0.28100  0.13910  1.0000
  H   H57       1.0  0.50020  0.27710  0.64910  1.0000
  H   H58       1.0  0.49980  0.77710  0.85090  1.0000
  H   H59       1.0  0.49980  0.72290  0.35090  1.0000
  H   H60       1.0  0.50020  0.22290  0.14910  1.0000
  C   C85       1.0  0.50670  0.14400  0.68180  1.0000
  C   C86       1.0  0.49330  0.64400  0.81820  1.0000
  C   C87       1.0  0.49330  0.85600  0.31820  1.0000
  C   C88       1.0  0.50670  0.35600  0.18180  1.0000
  H   H61       1.0  0.49200  0.15370  0.71940  1.0000
  H   H62       1.0  0.50800  0.65370  0.78060  1.0000
  H   H63       1.0  0.50800  0.84630  0.28060  1.0000
  H   H64       1.0  0.49200  0.34630  0.21940  1.0000
  C   C89       1.0  0.54160  0.04560  0.61330  1.0000
  C   C90       1.0  0.45840  0.54560  0.88670  1.0000
  C   C91       1.0  0.45840  0.95440  0.38670  1.0000
  C   C92       1.0  0.54160  0.45440  0.11330  1.0000
  C   C93       1.0  0.55670  0.95490  0.60140  1.0000
  C   C94       1.0  0.44330  0.45490  0.89860  1.0000
  C   C95       1.0  0.44330  0.04510  0.39860  1.0000
  C   C96       1.0  0.55670  0.54510  0.10140  1.0000
  C   C97       1.0  0.77860  0.75870  0.55910  1.0000
  C   C98       1.0  0.22140  0.25870  0.94090  1.0000
  C   C99       1.0  0.22140  0.24130  0.44090  1.0000
  C   C100      1.0  0.77860  0.74130  0.05910  1.0000
  H   H65       1.0  0.80890  0.72480  0.58380  1.0000
  H   H66       1.0  0.19110  0.22480  0.91620  1.0000
  H   H67       1.0  0.19110  0.27520  0.41620  1.0000
  H   H68       1.0  0.80890  0.77520  0.08380  1.0000
  H   H69       1.0  0.79070  0.81670  0.54490  1.0000
  H   H70       1.0  0.20930  0.31670  0.95510  1.0000
  H   H71       1.0  0.20930  0.18330  0.45510  1.0000
  H   H72       1.0  0.79070  0.68330  0.04490  1.0000
  C   C101      1.0  0.74410  0.77900  0.61040  1.0000
  C   C102      1.0  0.25590  0.27900  0.88960  1.0000
  C   C103      1.0  0.25590  0.22100  0.38960  1.0000
  C   C104      1.0  0.74410  0.72100  0.11040  1.0000
  H   H73       1.0  0.76000  0.82730  0.64200  1.0000
  H   H74       1.0  0.24000  0.32730  0.85800  1.0000
  H   H75       1.0  0.24000  0.17270  0.35800  1.0000
  H   H76       1.0  0.76000  0.67270  0.14200  1.0000
  H   H77       1.0  0.71040  0.80060  0.58460  1.0000
  H   H78       1.0  0.28960  0.30060  0.91540  1.0000
  H   H79       1.0  0.28960  0.19940  0.41540  1.0000
  H   H80       1.0  0.71040  0.69940  0.08460  1.0000
  C   C105      1.0  0.69560  0.70720  0.69390  1.0000
  C   C106      1.0  0.30440  0.20720  0.80610  1.0000
  C   C107      1.0  0.30440  0.29280  0.30610  1.0000
  C   C108      1.0  0.69560  0.79280  0.19390  1.0000
  H   H81       1.0  0.66330  0.72500  0.66200  1.0000
  H   H82       1.0  0.33670  0.22500  0.83800  1.0000
  H   H83       1.0  0.33670  0.27500  0.33800  1.0000
  H   H84       1.0  0.66330  0.77500  0.16200  1.0000
  H   H85       1.0  0.69000  0.64720  0.71200  1.0000
  H   H86       1.0  0.31000  0.14720  0.78800  1.0000
  H   H87       1.0  0.31000  0.35280  0.28800  1.0000
  H   H88       1.0  0.69000  0.85280  0.21200  1.0000
  C   C109      1.0  0.73680  0.69630  0.65140  1.0000
  C   C110      1.0  0.26320  0.19630  0.84860  1.0000
  C   C111      1.0  0.26320  0.30370  0.34860  1.0000
  C   C112      1.0  0.73680  0.80370  0.15140  1.0000
  H   H89       1.0  0.72710  0.64510  0.61970  1.0000
  H   H90       1.0  0.27290  0.14510  0.88030  1.0000
  H   H91       1.0  0.27290  0.35490  0.38030  1.0000
  H   H92       1.0  0.72710  0.85490  0.11970  1.0000
  H   H93       1.0  0.76980  0.68130  0.68280  1.0000
  H   H94       1.0  0.23020  0.18130  0.81720  1.0000
  H   H95       1.0  0.23020  0.31870  0.31720  1.0000
  H   H96       1.0  0.76980  0.81870  0.18280  1.0000
