data_image0
_chemical_formula_structural       Er4S8O32C8H4C4H4C20H4C4H4C12
_chemical_formula_sum              "Er4 S8 O32 C48 H16"
_cell_length_a       11.614
_cell_length_b       16.0888
_cell_length_c       12.0204
_cell_angle_alpha    90
_cell_angle_beta     112.699
_cell_angle_gamma    90

_space_group_name_H-M_alt    "P 1"
_space_group_IT_number       1

loop_
  _space_group_symop_operation_xyz
  'x, y, z'

loop_
  _atom_site_type_symbol
  _atom_site_label
  _atom_site_symmetry_multiplicity
  _atom_site_fract_x
  _atom_site_fract_y
  _atom_site_fract_z
  _atom_site_occupancy
  Er  Er1       1.0  0.19445  0.02789  0.57939  1.0000
  Er  Er2       1.0  0.80555  0.52789  0.92061  1.0000
  Er  Er3       1.0  0.80555  0.97211  0.42061  1.0000
  Er  Er4       1.0  0.19445  0.47211  0.07939  1.0000
  S   S1        1.0  0.05297  0.21983  0.21461  1.0000
  S   S2        1.0  0.94703  0.71983  0.28539  1.0000
  S   S3        1.0  0.94703  0.78017  0.78539  1.0000
  S   S4        1.0  0.05297  0.28017  0.71461  1.0000
  S   S5        1.0  0.49008  0.28376  0.75024  1.0000
  S   S6        1.0  0.50992  0.78376  0.74976  1.0000
  S   S7        1.0  0.50992  0.71624  0.24976  1.0000
  S   S8        1.0  0.49008  0.21624  0.25024  1.0000
  O   O1        1.0  0.12760  0.07640  0.38260  1.0000
  O   O2        1.0  0.87240  0.57640  0.11740  1.0000
  O   O3        1.0  0.87240  0.92360  0.61740  1.0000
  O   O4        1.0  0.12760  0.42360  0.88260  1.0000
  O   O5        1.0  0.93350  0.03000  0.34200  1.0000
  O   O6        1.0  0.06650  0.53000  0.15800  1.0000
  O   O7        1.0  0.06650  0.97000  0.65800  1.0000
  O   O8        1.0  0.93350  0.47000  0.84200  1.0000
  O   O9        1.0  0.05880  0.36510  0.06930  1.0000
  O   O10       1.0  0.94120  0.86510  0.43070  1.0000
  O   O11       1.0  0.94120  0.63490  0.93070  1.0000
  O   O12       1.0  0.05880  0.13490  0.56930  1.0000
  O   O13       1.0  0.85970  0.40410  0.02370  1.0000
  O   O14       1.0  0.14030  0.90410  0.47630  1.0000
  O   O15       1.0  0.14030  0.59590  0.97630  1.0000
  O   O16       1.0  0.85970  0.09590  0.52370  1.0000
  O   O17       1.0  0.27510  0.10360  0.77880  1.0000
  O   O18       1.0  0.72490  0.60360  0.72120  1.0000
  O   O19       1.0  0.72490  0.89640  0.22120  1.0000
  O   O20       1.0  0.27510  0.39640  0.27880  1.0000
  O   O21       1.0  0.33420  0.14050  0.63230  1.0000
  O   O22       1.0  0.66580  0.64050  0.86770  1.0000
  O   O23       1.0  0.66580  0.85950  0.36770  1.0000
  O   O24       1.0  0.33420  0.35950  0.13230  1.0000
  O   O25       1.0  0.65020  0.43460  0.79390  1.0000
  O   O26       1.0  0.34980  0.93460  0.70610  1.0000
  O   O27       1.0  0.34980  0.56540  0.20610  1.0000
  O   O28       1.0  0.65020  0.06540  0.29390  1.0000
  O   O29       1.0  0.62700  0.47750  0.95890  1.0000
  O   O30       1.0  0.37300  0.97750  0.54110  1.0000
  O   O31       1.0  0.37300  0.52250  0.04110  1.0000
  O   O32       1.0  0.62700  0.02250  0.45890  1.0000
  C   C1        1.0  0.95730  0.15400  0.25020  1.0000
  C   C2        1.0  0.04270  0.65400  0.24980  1.0000
  C   C3        1.0  0.04270  0.84600  0.74980  1.0000
  C   C4        1.0  0.95730  0.34600  0.75020  1.0000
  C   C5        1.0  0.83480  0.17770  0.19930  1.0000
  C   C6        1.0  0.16520  0.67770  0.30070  1.0000
  C   C7        1.0  0.16520  0.82230  0.80070  1.0000
  C   C8        1.0  0.83480  0.32230  0.69930  1.0000
  H   H1        1.0  0.76940  0.14880  0.20790  1.0000
  H   H2        1.0  0.23060  0.64880  0.29210  1.0000
  H   H3        1.0  0.23060  0.85120  0.79210  1.0000
  H   H4        1.0  0.76940  0.35120  0.70790  1.0000
  C   C9        1.0  0.82060  0.25120  0.13250  1.0000
  C   C10       1.0  0.17940  0.75120  0.36750  1.0000
  C   C11       1.0  0.17940  0.74880  0.86750  1.0000
  C   C12       1.0  0.82060  0.24880  0.63250  1.0000
  H   H5        1.0  0.74400  0.27710  0.09330  1.0000
  H   H6        1.0  0.25600  0.77710  0.40670  1.0000
  H   H7        1.0  0.25600  0.72290  0.90670  1.0000
  H   H8        1.0  0.74400  0.22290  0.59330  1.0000
  C   C13       1.0  0.92910  0.28080  0.13070  1.0000
  C   C14       1.0  0.07090  0.78080  0.36930  1.0000
  C   C15       1.0  0.07090  0.71920  0.86930  1.0000
  C   C16       1.0  0.92910  0.21920  0.63070  1.0000
  C   C17       1.0  0.01090  0.08080  0.33010  1.0000
  C   C18       1.0  0.98910  0.58080  0.16990  1.0000
  C   C19       1.0  0.98910  0.91920  0.66990  1.0000
  C   C20       1.0  0.01090  0.41920  0.83010  1.0000
  C   C21       1.0  0.95070  0.35610  0.06950  1.0000
  C   C22       1.0  0.04930  0.85610  0.43050  1.0000
  C   C23       1.0  0.04930  0.64390  0.93050  1.0000
  C   C24       1.0  0.95070  0.14390  0.56950  1.0000
  C   C25       1.0  0.39330  0.22850  0.80110  1.0000
  C   C26       1.0  0.60670  0.72850  0.69890  1.0000
  C   C27       1.0  0.60670  0.77150  0.19890  1.0000
  C   C28       1.0  0.39330  0.27150  0.30110  1.0000
  C   C29       1.0  0.38390  0.26530  0.90010  1.0000
  C   C30       1.0  0.61610  0.76530  0.59990  1.0000
  C   C31       1.0  0.61610  0.73470  0.09990  1.0000
  C   C32       1.0  0.38390  0.23470  0.40010  1.0000
  H   H9        1.0  0.33620  0.24390  0.94020  1.0000
  H   H10       1.0  0.66380  0.74390  0.55980  1.0000
  H   H11       1.0  0.66380  0.75610  0.05980  1.0000
  H   H12       1.0  0.33620  0.25610  0.44020  1.0000
  C   C33       1.0  0.45440  0.33900  0.93470  1.0000
  C   C34       1.0  0.54560  0.83900  0.56530  1.0000
  C   C35       1.0  0.54560  0.66100  0.06530  1.0000
  C   C36       1.0  0.45440  0.16100  0.43470  1.0000
  H   H13       1.0  0.45670  0.37200  0.99910  1.0000
  H   H14       1.0  0.54330  0.87200  0.50090  1.0000
  H   H15       1.0  0.54330  0.62800  0.00090  1.0000
  H   H16       1.0  0.45670  0.12800  0.49910  1.0000
  C   C37       1.0  0.51850  0.35680  0.86420  1.0000
  C   C38       1.0  0.48150  0.85680  0.63580  1.0000
  C   C39       1.0  0.48150  0.64320  0.13580  1.0000
  C   C40       1.0  0.51850  0.14320  0.36420  1.0000
  C   C41       1.0  0.33080  0.15210  0.73480  1.0000
  C   C42       1.0  0.66920  0.65210  0.76520  1.0000
  C   C43       1.0  0.66920  0.84790  0.26520  1.0000
  C   C44       1.0  0.33080  0.34790  0.23480  1.0000
  C   C45       1.0  0.60340  0.42670  0.87230  1.0000
  C   C46       1.0  0.39660  0.92670  0.62770  1.0000
  C   C47       1.0  0.39660  0.57330  0.12770  1.0000
  C   C48       1.0  0.60340  0.07330  0.37230  1.0000
