data_image0
_chemical_formula_structural       Bi4O40N12C56H72
_chemical_formula_sum              "Bi4 O40 N12 C56 H72"
_cell_length_a       15.113
_cell_length_b       10.72
_cell_length_c       17.091
_cell_angle_alpha    90
_cell_angle_beta     102.72
_cell_angle_gamma    90

_space_group_name_H-M_alt    "P 1"
_space_group_IT_number       1

loop_
  _space_group_symop_operation_xyz
  'x, y, z'

loop_
  _atom_site_type_symbol
  _atom_site_label
  _atom_site_symmetry_multiplicity
  _atom_site_fract_x
  _atom_site_fract_y
  _atom_site_fract_z
  _atom_site_occupancy
  Bi  Bi1       1.0  0.95368  0.40627  0.64925  1.0000
  Bi  Bi2       1.0  0.54632  0.90627  0.85075  1.0000
  Bi  Bi3       1.0  0.04632  0.59373  0.35075  1.0000
  Bi  Bi4       1.0  0.45368  0.09373  0.14925  1.0000
  O   O1        1.0  0.93420  0.39620  0.49660  1.0000
  O   O2        1.0  0.56580  0.89620  0.00340  1.0000
  O   O3        1.0  0.06580  0.60380  0.50340  1.0000
  O   O4        1.0  0.43420  0.10380  0.99660  1.0000
  O   O5        1.0  0.89170  0.52330  0.39110  1.0000
  O   O6        1.0  0.60830  0.02330  0.10890  1.0000
  O   O7        1.0  0.10830  0.47670  0.60890  1.0000
  O   O8        1.0  0.39170  0.97670  0.89110  1.0000
  O   O9        1.0  0.85280  0.23430  0.63060  1.0000
  O   O10       1.0  0.64720  0.73430  0.86940  1.0000
  O   O11       1.0  0.14720  0.76570  0.36940  1.0000
  O   O12       1.0  0.35280  0.26570  0.13060  1.0000
  O   O13       1.0  0.73210  0.13170  0.56470  1.0000
  O   O14       1.0  0.76790  0.63170  0.93530  1.0000
  O   O15       1.0  0.26790  0.86830  0.43530  1.0000
  O   O16       1.0  0.23210  0.36830  0.06470  1.0000
  O   O17       1.0  0.92710  0.63260  0.66300  1.0000
  O   O18       1.0  0.57290  0.13260  0.83700  1.0000
  O   O19       1.0  0.07290  0.36740  0.33700  1.0000
  O   O20       1.0  0.42710  0.86740  0.16300  1.0000
  O   O21       1.0  0.90180  0.77800  0.74820  1.0000
  O   O22       1.0  0.59820  0.27800  0.75180  1.0000
  O   O23       1.0  0.09820  0.22200  0.25180  1.0000
  O   O24       1.0  0.40180  0.72200  0.24820  1.0000
  O   O25       1.0  0.04280  0.21330  0.63950  1.0000
  O   O26       1.0  0.45720  0.71330  0.86050  1.0000
  O   O27       1.0  0.95720  0.78670  0.36050  1.0000
  O   O28       1.0  0.54280  0.28670  0.13950  1.0000
  O   O29       1.0  0.06510  0.01440  0.67390  1.0000
  O   O30       1.0  0.43490  0.51440  0.82610  1.0000
  O   O31       1.0  0.93490  0.98560  0.32610  1.0000
  O   O32       1.0  0.56510  0.48560  0.17390  1.0000
  O   O33       1.0  0.06670  0.50680  0.76940  1.0000
  O   O34       1.0  0.43330  0.00680  0.73060  1.0000
  O   O35       1.0  0.93330  0.49320  0.23060  1.0000
  O   O36       1.0  0.56670  0.99320  0.26940  1.0000
  O   O37       1.0  0.18340  0.47950  0.87210  1.0000
  O   O38       1.0  0.31660  0.97950  0.62790  1.0000
  O   O39       1.0  0.81660  0.52050  0.12790  1.0000
  O   O40       1.0  0.68340  0.02050  0.37210  1.0000
  N   N1        1.0  0.79230  0.45890  0.55980  1.0000
  N   N2        1.0  0.70770  0.95890  0.94020  1.0000
  N   N3        1.0  0.20770  0.54110  0.44020  1.0000
  N   N4        1.0  0.29230  0.04110  0.05980  1.0000
  N   N5        1.0  0.84320  0.44960  0.73810  1.0000
  N   N6        1.0  0.65680  0.94960  0.76190  1.0000
  N   N7        1.0  0.15680  0.55040  0.26190  1.0000
  N   N8        1.0  0.34320  0.05040  0.23810  1.0000
  N   N9        1.0  0.00140  0.27310  0.78080  1.0000
  N   N10       1.0  0.49860  0.77310  0.71920  1.0000
  N   N11       1.0  0.99860  0.72690  0.21920  1.0000
  N   N12       1.0  0.50140  0.22690  0.28080  1.0000
  C   C1        1.0  0.81030  0.53610  0.49350  1.0000
  C   C2        1.0  0.68970  0.03610  0.00650  1.0000
  C   C3        1.0  0.18970  0.46390  0.50650  1.0000
  C   C4        1.0  0.31030  0.96390  0.99350  1.0000
  C   C5        1.0  0.88460  0.47950  0.45780  1.0000
  C   C6        1.0  0.61540  0.97950  0.04220  1.0000
  C   C7        1.0  0.11540  0.52050  0.54220  1.0000
  C   C8        1.0  0.38460  0.02050  0.95780  1.0000
  C   C9        1.0  0.74650  0.34110  0.52760  1.0000
  C   C10       1.0  0.75350  0.84110  0.97240  1.0000
  C   C11       1.0  0.25350  0.65890  0.47240  1.0000
  C   C12       1.0  0.24650  0.15890  0.02760  1.0000
  C   C13       1.0  0.77910  0.22770  0.57750  1.0000
  C   C14       1.0  0.72090  0.72770  0.92250  1.0000
  C   C15       1.0  0.22090  0.77230  0.42250  1.0000
  C   C16       1.0  0.27910  0.27230  0.07750  1.0000
  C   C17       1.0  0.87170  0.56990  0.77890  1.0000
  C   C18       1.0  0.62830  0.06990  0.72110  1.0000
  C   C19       1.0  0.12830  0.43010  0.22110  1.0000
  C   C20       1.0  0.37170  0.93010  0.27890  1.0000
  C   C21       1.0  0.90170  0.66780  0.72600  1.0000
  C   C22       1.0  0.59830  0.16780  0.77400  1.0000
  C   C23       1.0  0.09830  0.33220  0.27400  1.0000
  C   C24       1.0  0.40170  0.83220  0.22600  1.0000
  C   C25       1.0  0.99500  0.14160  0.75770  1.0000
  C   C26       1.0  0.50500  0.64160  0.74230  1.0000
  C   C27       1.0  0.00500  0.85840  0.24230  1.0000
  C   C28       1.0  0.49500  0.35840  0.25770  1.0000
  C   C29       1.0  0.03690  0.11990  0.68450  1.0000
  C   C30       1.0  0.46310  0.61990  0.81550  1.0000
  C   C31       1.0  0.96310  0.88010  0.31550  1.0000
  C   C32       1.0  0.53690  0.38010  0.18450  1.0000
  C   C33       1.0  0.09660  0.30440  0.82030  1.0000
  C   C34       1.0  0.40340  0.80440  0.67970  1.0000
  C   C35       1.0  0.90340  0.69560  0.17970  1.0000
  C   C36       1.0  0.59660  0.19560  0.32030  1.0000
  C   C37       1.0  0.11650  0.44170  0.82150  1.0000
  C   C38       1.0  0.38350  0.94170  0.67850  1.0000
  C   C39       1.0  0.88350  0.55830  0.17850  1.0000
  C   C40       1.0  0.61650  0.05830  0.32150  1.0000
  C   C41       1.0  0.73960  0.52390  0.61040  1.0000
  C   C42       1.0  0.76040  0.02390  0.88960  1.0000
  C   C43       1.0  0.26040  0.47610  0.38960  1.0000
  C   C44       1.0  0.23960  0.97610  0.11040  1.0000
  C   C45       1.0  0.74890  0.45810  0.69070  1.0000
  C   C46       1.0  0.75110  0.95810  0.80930  1.0000
  C   C47       1.0  0.25110  0.54190  0.30930  1.0000
  C   C48       1.0  0.24890  0.04190  0.19070  1.0000
  C   C49       1.0  0.84770  0.34400  0.79650  1.0000
  C   C50       1.0  0.65230  0.84400  0.70350  1.0000
  C   C51       1.0  0.15230  0.65600  0.20350  1.0000
  C   C52       1.0  0.34770  0.15600  0.29650  1.0000
  C   C53       1.0  0.94290  0.30630  0.83760  1.0000
  C   C54       1.0  0.55710  0.80630  0.66240  1.0000
  C   C55       1.0  0.05710  0.69370  0.16240  1.0000
  C   C56       1.0  0.44290  0.19370  0.33760  1.0000
  H   H1        1.0  0.83400  0.62100  0.52000  1.0000
  H   H2        1.0  0.66600  0.12100  0.98000  1.0000
  H   H3        1.0  0.16600  0.37900  0.48000  1.0000
  H   H4        1.0  0.33400  0.87900  0.02000  1.0000
  H   H5        1.0  0.75300  0.55000  0.45800  1.0000
  H   H6        1.0  0.74700  0.05000  0.04200  1.0000
  H   H7        1.0  0.24700  0.45000  0.54200  1.0000
  H   H8        1.0  0.25300  0.95000  0.95800  1.0000
  H   H9        1.0  0.77400  0.32100  0.47300  1.0000
  H   H10       1.0  0.72600  0.82100  0.02700  1.0000
  H   H11       1.0  0.22600  0.67900  0.52700  1.0000
  H   H12       1.0  0.27400  0.17900  0.97300  1.0000
  H   H13       1.0  0.68400  0.34900  0.51500  1.0000
  H   H14       1.0  0.81600  0.84900  0.98500  1.0000
  H   H15       1.0  0.31600  0.65100  0.48500  1.0000
  H   H16       1.0  0.18400  0.15100  0.01500  1.0000
  H   H17       1.0  0.82143  0.60296  0.79817  1.0000
  H   H18       1.0  0.67857  0.10296  0.70183  1.0000
  H   H19       1.0  0.17857  0.39704  0.20183  1.0000
  H   H20       1.0  0.32143  0.89704  0.29817  1.0000
  H   H21       1.0  0.92137  0.55385  0.82343  1.0000
  H   H22       1.0  0.57863  0.05385  0.67657  1.0000
  H   H23       1.0  0.07863  0.44615  0.17657  1.0000
  H   H24       1.0  0.42137  0.94615  0.32343  1.0000
  H   H25       1.0  0.93000  0.12000  0.74200  1.0000
  H   H26       1.0  0.57000  0.62000  0.75800  1.0000
  H   H27       1.0  0.07000  0.88000  0.25800  1.0000
  H   H28       1.0  0.43000  0.38000  0.24200  1.0000
  H   H29       1.0  0.01900  0.10100  0.80000  1.0000
  H   H30       1.0  0.48100  0.60100  0.70000  1.0000
  H   H31       1.0  0.98100  0.89900  0.20000  1.0000
  H   H32       1.0  0.51900  0.39900  0.30000  1.0000
  H   H33       1.0  0.13300  0.27000  0.80000  1.0000
  H   H34       1.0  0.36700  0.77000  0.70000  1.0000
  H   H35       1.0  0.86700  0.73000  0.20000  1.0000
  H   H36       1.0  0.63300  0.23000  0.30000  1.0000
  H   H37       1.0  0.10800  0.25400  0.87300  1.0000
  H   H38       1.0  0.39200  0.75400  0.62700  1.0000
  H   H39       1.0  0.89200  0.74600  0.12700  1.0000
  H   H40       1.0  0.60800  0.24600  0.37300  1.0000
  H   H41       1.0  0.67200  0.53300  0.58200  1.0000
  H   H42       1.0  0.82800  0.03300  0.91800  1.0000
  H   H43       1.0  0.32800  0.46700  0.41800  1.0000
  H   H44       1.0  0.17200  0.96700  0.08200  1.0000
  H   H45       1.0  0.76600  0.61100  0.61100  1.0000
  H   H46       1.0  0.73400  0.11100  0.88900  1.0000
  H   H47       1.0  0.23400  0.38900  0.38900  1.0000
  H   H48       1.0  0.26600  0.88900  0.11100  1.0000
  H   H49       1.0  0.71100  0.49900  0.72200  1.0000
  H   H50       1.0  0.78900  0.99900  0.77800  1.0000
  H   H51       1.0  0.28900  0.50100  0.27800  1.0000
  H   H52       1.0  0.21100  0.00100  0.22200  1.0000
  H   H53       1.0  0.72300  0.37700  0.69600  1.0000
  H   H54       1.0  0.77700  0.87700  0.80400  1.0000
  H   H55       1.0  0.27700  0.62300  0.30400  1.0000
  H   H56       1.0  0.22300  0.12300  0.19600  1.0000
  H   H57       1.0  0.81700  0.37000  0.83600  1.0000
  H   H58       1.0  0.68300  0.87000  0.66400  1.0000
  H   H59       1.0  0.18300  0.63000  0.16400  1.0000
  H   H60       1.0  0.31700  0.13000  0.33600  1.0000
  H   H61       1.0  0.81600  0.26200  0.76900  1.0000
  H   H62       1.0  0.68400  0.76200  0.73100  1.0000
  H   H63       1.0  0.18400  0.73800  0.23100  1.0000
  H   H64       1.0  0.31600  0.23800  0.26900  1.0000
  H   H65       1.0  0.97300  0.36500  0.86900  1.0000
  H   H66       1.0  0.52700  0.86500  0.63100  1.0000
  H   H67       1.0  0.02700  0.63500  0.13100  1.0000
  H   H68       1.0  0.47300  0.13500  0.36900  1.0000
  H   H69       1.0  0.93800  0.23400  0.87700  1.0000
  H   H70       1.0  0.56200  0.73400  0.62300  1.0000
  H   H71       1.0  0.06200  0.76600  0.12300  1.0000
  H   H72       1.0  0.43800  0.26600  0.37700  1.0000
