data_image0
_chemical_formula_structural       Zn4O24C8H8C4H4
_chemical_formula_sum              "Zn4 O24 C12 H12"
_cell_length_a       8.414
_cell_length_b       11.7084
_cell_length_c       8.096
_cell_angle_alpha    90
_cell_angle_beta     90
_cell_angle_gamma    90

_space_group_name_H-M_alt    "P 1"
_space_group_IT_number       1

loop_
  _space_group_symop_operation_xyz
  'x, y, z'

loop_
  _atom_site_type_symbol
  _atom_site_label
  _atom_site_symmetry_multiplicity
  _atom_site_fract_x
  _atom_site_fract_y
  _atom_site_fract_z
  _atom_site_occupancy
  Zn  Zn1       1.0  0.00000  0.50000  0.00000  1.0000
  Zn  Zn2       1.0  0.50000  0.50000  0.50000  1.0000
  Zn  Zn3       1.0  0.00000  0.00000  0.00000  1.0000
  Zn  Zn4       1.0  0.50000  0.00000  0.50000  1.0000
  O   O1        1.0  0.09820  0.56848  0.21629  1.0000
  O   O2        1.0  0.40180  0.43152  0.71629  1.0000
  O   O3        1.0  0.90180  0.06848  0.78371  1.0000
  O   O4        1.0  0.59820  0.93152  0.28371  1.0000
  O   O5        1.0  0.90180  0.43152  0.78371  1.0000
  O   O6        1.0  0.59820  0.56848  0.28371  1.0000
  O   O7        1.0  0.09820  0.93152  0.21629  1.0000
  O   O8        1.0  0.40180  0.06848  0.71629  1.0000
  O   O9        1.0  0.27632  0.56053  0.41714  1.0000
  O   O10       1.0  0.22368  0.43947  0.91714  1.0000
  O   O11       1.0  0.72368  0.06053  0.58286  1.0000
  O   O12       1.0  0.77632  0.93947  0.08286  1.0000
  O   O13       1.0  0.72368  0.43947  0.58286  1.0000
  O   O14       1.0  0.77632  0.56053  0.08286  1.0000
  O   O15       1.0  0.27632  0.93947  0.41714  1.0000
  O   O16       1.0  0.22368  0.06053  0.91714  1.0000
  O   O17       1.0  0.97065  0.34412  0.12606  1.0000
  O   O18       1.0  0.52935  0.65588  0.62606  1.0000
  O   O19       1.0  0.02935  0.84412  0.87394  1.0000
  O   O20       1.0  0.47065  0.15588  0.37394  1.0000
  O   O21       1.0  0.02935  0.65588  0.87394  1.0000
  O   O22       1.0  0.47065  0.34412  0.37394  1.0000
  O   O23       1.0  0.97065  0.15588  0.12606  1.0000
  O   O24       1.0  0.52935  0.84412  0.62606  1.0000
  C   C1        1.0  0.22040  0.52950  0.28050  1.0000
  C   C2        1.0  0.27960  0.47050  0.78050  1.0000
  C   C3        1.0  0.77960  0.02950  0.71950  1.0000
  C   C4        1.0  0.72040  0.97050  0.21950  1.0000
  C   C5        1.0  0.77960  0.47050  0.71950  1.0000
  C   C6        1.0  0.72040  0.52950  0.21950  1.0000
  C   C7        1.0  0.22040  0.97050  0.28050  1.0000
  C   C8        1.0  0.27960  0.02950  0.78050  1.0000
  H   H1        1.0  0.27490  0.47290  0.22310  1.0000
  H   H2        1.0  0.22510  0.52710  0.72310  1.0000
  H   H3        1.0  0.72510  0.97290  0.77690  1.0000
  H   H4        1.0  0.77490  0.02710  0.27690  1.0000
  H   H5        1.0  0.72510  0.52710  0.77690  1.0000
  H   H6        1.0  0.77490  0.47290  0.27690  1.0000
  H   H7        1.0  0.27490  0.02710  0.22310  1.0000
  H   H8        1.0  0.22510  0.97290  0.72310  1.0000
  C   C9        1.0  0.98620  0.25000  0.05620  1.0000
  C   C10       1.0  0.51380  0.75000  0.55620  1.0000
  C   C11       1.0  0.01380  0.75000  0.94380  1.0000
  C   C12       1.0  0.48620  0.25000  0.44380  1.0000
  H   H9        1.0  0.01110  0.25000  0.94430  1.0000
  H   H10       1.0  0.48890  0.75000  0.44430  1.0000
  H   H11       1.0  0.98890  0.75000  0.05570  1.0000
  H   H12       1.0  0.51110  0.25000  0.55570  1.0000
