data_image0
_chemical_formula_structural       Zn4O16C4H4C8H8O8
_chemical_formula_sum              "Zn4 O24 C12 H12"
_cell_length_a       8.4127
_cell_length_b       11.727
_cell_length_c       8.108
_cell_angle_alpha    90
_cell_angle_beta     90
_cell_angle_gamma    90

_space_group_name_H-M_alt    "P 1"
_space_group_IT_number       1

loop_
  _space_group_symop_operation_xyz
  'x, y, z'

loop_
  _atom_site_type_symbol
  _atom_site_label
  _atom_site_symmetry_multiplicity
  _atom_site_fract_x
  _atom_site_fract_y
  _atom_site_fract_z
  _atom_site_occupancy
  Zn  Zn1       1.0  0.00000  0.50000  0.00000  1.0000
  Zn  Zn2       1.0  0.50000  0.50000  0.50000  1.0000
  Zn  Zn3       1.0  0.00000  0.00000  0.00000  1.0000
  Zn  Zn4       1.0  0.50000  0.00000  0.50000  1.0000
  O   O1        1.0  0.09777  0.43221  0.21644  1.0000
  O   O2        1.0  0.40223  0.56779  0.71644  1.0000
  O   O3        1.0  0.90223  0.93221  0.78356  1.0000
  O   O4        1.0  0.59777  0.06779  0.28356  1.0000
  O   O5        1.0  0.90223  0.56779  0.78356  1.0000
  O   O6        1.0  0.59777  0.43221  0.28356  1.0000
  O   O7        1.0  0.09777  0.06779  0.21644  1.0000
  O   O8        1.0  0.40223  0.93221  0.71644  1.0000
  O   O9        1.0  0.97180  0.65592  0.12570  1.0000
  O   O10       1.0  0.52820  0.34408  0.62570  1.0000
  O   O11       1.0  0.02820  0.15592  0.87430  1.0000
  O   O12       1.0  0.47180  0.84408  0.37430  1.0000
  O   O13       1.0  0.02820  0.34408  0.87430  1.0000
  O   O14       1.0  0.47180  0.65592  0.37430  1.0000
  O   O15       1.0  0.97180  0.84408  0.12570  1.0000
  O   O16       1.0  0.52820  0.15592  0.62570  1.0000
  C   C1        1.0  0.98750  0.75000  0.05630  1.0000
  C   C2        1.0  0.51250  0.25000  0.55630  1.0000
  C   C3        1.0  0.01250  0.25000  0.94370  1.0000
  C   C4        1.0  0.48750  0.75000  0.44370  1.0000
  H   H1        1.0  0.01360  0.75000  0.93980  1.0000
  H   H2        1.0  0.48640  0.25000  0.43980  1.0000
  H   H3        1.0  0.98640  0.25000  0.06020  1.0000
  H   H4        1.0  0.51360  0.75000  0.56020  1.0000
  C   C5        1.0  0.22130  0.47090  0.28010  1.0000
  C   C6        1.0  0.27870  0.52910  0.78010  1.0000
  C   C7        1.0  0.77870  0.97090  0.71990  1.0000
  C   C8        1.0  0.72130  0.02910  0.21990  1.0000
  C   C9        1.0  0.77870  0.52910  0.71990  1.0000
  C   C10       1.0  0.72130  0.47090  0.21990  1.0000
  C   C11       1.0  0.22130  0.02910  0.28010  1.0000
  C   C12       1.0  0.27870  0.97090  0.78010  1.0000
  H   H5        1.0  0.27880  0.52930  0.22000  1.0000
  H   H6        1.0  0.22120  0.47070  0.72000  1.0000
  H   H7        1.0  0.72120  0.02930  0.78000  1.0000
  H   H8        1.0  0.77880  0.97070  0.28000  1.0000
  H   H9        1.0  0.72120  0.47070  0.78000  1.0000
  H   H10       1.0  0.77880  0.52930  0.28000  1.0000
  H   H11       1.0  0.27880  0.97070  0.22000  1.0000
  H   H12       1.0  0.22120  0.02930  0.72000  1.0000
  O   O17       1.0  0.27648  0.43950  0.41670  1.0000
  O   O18       1.0  0.22352  0.56050  0.91670  1.0000
  O   O19       1.0  0.72352  0.93950  0.58330  1.0000
  O   O20       1.0  0.77648  0.06050  0.08330  1.0000
  O   O21       1.0  0.72352  0.56050  0.58330  1.0000
  O   O22       1.0  0.77648  0.43950  0.08330  1.0000
  O   O23       1.0  0.27648  0.06050  0.41670  1.0000
  O   O24       1.0  0.22352  0.93950  0.91670  1.0000
