data_image0
_chemical_formula_structural       Cu4O32C12H4C12H4C16
_chemical_formula_sum              "Cu4 O32 C40 H8"
_cell_length_a       11.432
_cell_length_b       18.484
_cell_length_c       7.4981
_cell_angle_alpha    90
_cell_angle_beta     94.8
_cell_angle_gamma    90

_space_group_name_H-M_alt    "P 1"
_space_group_IT_number       1

loop_
  _space_group_symop_operation_xyz
  'x, y, z'

loop_
  _atom_site_type_symbol
  _atom_site_label
  _atom_site_symmetry_multiplicity
  _atom_site_fract_x
  _atom_site_fract_y
  _atom_site_fract_z
  _atom_site_occupancy
  Cu  Cu1       1.0  0.50000  0.24370  0.00000  1.0000
  Cu  Cu2       1.0  0.00000  0.74370  0.00000  1.0000
  Cu  Cu3       1.0  0.50000  0.75630  0.00000  1.0000
  Cu  Cu4       1.0  0.00000  0.25630  0.00000  1.0000
  O   O1        1.0  0.38012  0.31920  0.98420  1.0000
  O   O2        1.0  0.88012  0.81920  0.98420  1.0000
  O   O3        1.0  0.61988  0.31920  0.01580  1.0000
  O   O4        1.0  0.11988  0.81920  0.01580  1.0000
  O   O5        1.0  0.61988  0.68080  0.01580  1.0000
  O   O6        1.0  0.11988  0.18080  0.01580  1.0000
  O   O7        1.0  0.38012  0.68080  0.98420  1.0000
  O   O8        1.0  0.88012  0.18080  0.98420  1.0000
  O   O9        1.0  0.43585  0.35615  0.26380  1.0000
  O   O10       1.0  0.93585  0.85615  0.26380  1.0000
  O   O11       1.0  0.56415  0.35615  0.73620  1.0000
  O   O12       1.0  0.06415  0.85615  0.73620  1.0000
  O   O13       1.0  0.56415  0.64385  0.73620  1.0000
  O   O14       1.0  0.06415  0.14385  0.73620  1.0000
  O   O15       1.0  0.43585  0.64385  0.26380  1.0000
  O   O16       1.0  0.93585  0.14385  0.26380  1.0000
  O   O17       1.0  0.11508  0.34645  0.76530  1.0000
  O   O18       1.0  0.61508  0.84645  0.76530  1.0000
  O   O19       1.0  0.88492  0.34645  0.23470  1.0000
  O   O20       1.0  0.38492  0.84645  0.23470  1.0000
  O   O21       1.0  0.88492  0.65355  0.23470  1.0000
  O   O22       1.0  0.38492  0.15355  0.23470  1.0000
  O   O23       1.0  0.11508  0.65355  0.76530  1.0000
  O   O24       1.0  0.61508  0.15355  0.76530  1.0000
  O   O25       1.0  0.11590  0.33154  0.06130  1.0000
  O   O26       1.0  0.61590  0.83154  0.06130  1.0000
  O   O27       1.0  0.88410  0.33154  0.93870  1.0000
  O   O28       1.0  0.38410  0.83154  0.93870  1.0000
  O   O29       1.0  0.88410  0.66846  0.93870  1.0000
  O   O30       1.0  0.38410  0.16846  0.93870  1.0000
  O   O31       1.0  0.11590  0.66846  0.06130  1.0000
  O   O32       1.0  0.61590  0.16846  0.06130  1.0000
  C   C1        1.0  0.31880  0.43453  0.06770  1.0000
  C   C2        1.0  0.81880  0.93453  0.06770  1.0000
  C   C3        1.0  0.68120  0.43453  0.93230  1.0000
  C   C4        1.0  0.18120  0.93453  0.93230  1.0000
  C   C5        1.0  0.68120  0.56547  0.93230  1.0000
  C   C6        1.0  0.18120  0.06547  0.93230  1.0000
  C   C7        1.0  0.31880  0.56547  0.06770  1.0000
  C   C8        1.0  0.81880  0.06547  0.06770  1.0000
  C   C9        1.0  0.37060  0.50000  0.12020  1.0000
  C   C10       1.0  0.87060  0.00000  0.12020  1.0000
  C   C11       1.0  0.62940  0.50000  0.87980  1.0000
  C   C12       1.0  0.12940  0.00000  0.87980  1.0000
  H   H1        1.0  0.44120  0.50000  0.19160  1.0000
  H   H2        1.0  0.94120  0.00000  0.19160  1.0000
  H   H3        1.0  0.55880  0.50000  0.80840  1.0000
  H   H4        1.0  0.05880  0.00000  0.80840  1.0000
  C   C13       1.0  0.21090  0.43458  0.96220  1.0000
  C   C14       1.0  0.71090  0.93458  0.96220  1.0000
  C   C15       1.0  0.78910  0.43458  0.03780  1.0000
  C   C16       1.0  0.28910  0.93458  0.03780  1.0000
  C   C17       1.0  0.78910  0.56542  0.03780  1.0000
  C   C18       1.0  0.28910  0.06542  0.03780  1.0000
  C   C19       1.0  0.21090  0.56542  0.96220  1.0000
  C   C20       1.0  0.71090  0.06542  0.96220  1.0000
  C   C21       1.0  0.15810  0.50000  0.91000  1.0000
  C   C22       1.0  0.65810  0.00000  0.91000  1.0000
  C   C23       1.0  0.84190  0.50000  0.09000  1.0000
  C   C24       1.0  0.34190  0.00000  0.09000  1.0000
  H   H5        1.0  0.08710  0.50000  0.83980  1.0000
  H   H6        1.0  0.58710  0.00000  0.83980  1.0000
  H   H7        1.0  0.91290  0.50000  0.16020  1.0000
  H   H8        1.0  0.41290  0.00000  0.16020  1.0000
  C   C25       1.0  0.38250  0.36478  0.11250  1.0000
  C   C26       1.0  0.88250  0.86478  0.11250  1.0000
  C   C27       1.0  0.61750  0.36478  0.88750  1.0000
  C   C28       1.0  0.11750  0.86478  0.88750  1.0000
  C   C29       1.0  0.61750  0.63522  0.88750  1.0000
  C   C30       1.0  0.11750  0.13522  0.88750  1.0000
  C   C31       1.0  0.38250  0.63522  0.11250  1.0000
  C   C32       1.0  0.88250  0.13522  0.11250  1.0000
  C   C33       1.0  0.14390  0.36512  0.92110  1.0000
  C   C34       1.0  0.64390  0.86512  0.92110  1.0000
  C   C35       1.0  0.85610  0.36512  0.07890  1.0000
  C   C36       1.0  0.35610  0.86512  0.07890  1.0000
  C   C37       1.0  0.85610  0.63488  0.07890  1.0000
  C   C38       1.0  0.35610  0.13488  0.07890  1.0000
  C   C39       1.0  0.14390  0.63488  0.92110  1.0000
  C   C40       1.0  0.64390  0.13488  0.92110  1.0000
