data_image0
_chemical_formula_structural       Zn16P16O16C16Zn4P8O16C8H8C8O32C16H16O8
_chemical_formula_sum              "Zn20 P24 O72 C48 H24"
_cell_length_a       8.43
_cell_length_b       16.155
_cell_length_c       19.84
_cell_angle_alpha    90
_cell_angle_beta     90
_cell_angle_gamma    90

_space_group_name_H-M_alt    "P 1"
_space_group_IT_number       1

loop_
  _space_group_symop_operation_xyz
  'x, y, z'

loop_
  _atom_site_type_symbol
  _atom_site_label
  _atom_site_symmetry_multiplicity
  _atom_site_fract_x
  _atom_site_fract_y
  _atom_site_fract_z
  _atom_site_occupancy
  Zn  Zn1       1.0  0.61120  0.24791  0.08719  1.0000
  Zn  Zn2       1.0  0.38880  0.75209  0.08719  1.0000
  Zn  Zn3       1.0  0.88880  0.74791  0.91281  1.0000
  Zn  Zn4       1.0  0.11120  0.25209  0.91281  1.0000
  Zn  Zn5       1.0  0.11120  0.74791  0.58719  1.0000
  Zn  Zn6       1.0  0.88880  0.25209  0.58719  1.0000
  Zn  Zn7       1.0  0.38880  0.24791  0.41281  1.0000
  Zn  Zn8       1.0  0.61120  0.75209  0.41281  1.0000
  Zn  Zn9       1.0  0.38880  0.75209  0.91281  1.0000
  Zn  Zn10      1.0  0.61120  0.24791  0.91281  1.0000
  Zn  Zn11      1.0  0.11120  0.25209  0.08719  1.0000
  Zn  Zn12      1.0  0.88880  0.74791  0.08719  1.0000
  Zn  Zn13      1.0  0.88880  0.25209  0.41281  1.0000
  Zn  Zn14      1.0  0.11120  0.74791  0.41281  1.0000
  Zn  Zn15      1.0  0.61120  0.75209  0.58719  1.0000
  Zn  Zn16      1.0  0.38880  0.24791  0.58719  1.0000
  P   P1        1.0  0.37100  0.37823  0.13866  1.0000
  P   P2        1.0  0.62900  0.62177  0.13866  1.0000
  P   P3        1.0  0.12900  0.87823  0.86134  1.0000
  P   P4        1.0  0.87100  0.12177  0.86134  1.0000
  P   P5        1.0  0.87100  0.87823  0.63866  1.0000
  P   P6        1.0  0.12900  0.12177  0.63866  1.0000
  P   P7        1.0  0.62900  0.37823  0.36134  1.0000
  P   P8        1.0  0.37100  0.62177  0.36134  1.0000
  P   P9        1.0  0.62900  0.62177  0.86134  1.0000
  P   P10       1.0  0.37100  0.37823  0.86134  1.0000
  P   P11       1.0  0.87100  0.12177  0.13866  1.0000
  P   P12       1.0  0.12900  0.87823  0.13866  1.0000
  P   P13       1.0  0.12900  0.12177  0.36134  1.0000
  P   P14       1.0  0.87100  0.87823  0.36134  1.0000
  P   P15       1.0  0.37100  0.62177  0.63866  1.0000
  P   P16       1.0  0.62900  0.37823  0.63866  1.0000
  O   O1        1.0  0.35090  0.43790  0.19670  1.0000
  O   O2        1.0  0.64910  0.56210  0.19670  1.0000
  O   O3        1.0  0.14910  0.93790  0.80330  1.0000
  O   O4        1.0  0.85090  0.06210  0.80330  1.0000
  O   O5        1.0  0.85090  0.93790  0.69670  1.0000
  O   O6        1.0  0.14910  0.06210  0.69670  1.0000
  O   O7        1.0  0.64910  0.43790  0.30330  1.0000
  O   O8        1.0  0.35090  0.56210  0.30330  1.0000
  O   O9        1.0  0.64910  0.56210  0.80330  1.0000
  O   O10       1.0  0.35090  0.43790  0.80330  1.0000
  O   O11       1.0  0.85090  0.06210  0.19670  1.0000
  O   O12       1.0  0.14910  0.93790  0.19670  1.0000
  O   O13       1.0  0.14910  0.06210  0.30330  1.0000
  O   O14       1.0  0.85090  0.93790  0.30330  1.0000
  O   O15       1.0  0.35090  0.56210  0.69670  1.0000
  O   O16       1.0  0.64910  0.43790  0.69670  1.0000
  C   C1        1.0  0.32240  0.43210  0.06130  1.0000
  C   C2        1.0  0.67760  0.56790  0.06130  1.0000
  C   C3        1.0  0.17760  0.93210  0.93870  1.0000
  C   C4        1.0  0.82240  0.06790  0.93870  1.0000
  C   C5        1.0  0.82240  0.93210  0.56130  1.0000
  C   C6        1.0  0.17760  0.06790  0.56130  1.0000
  C   C7        1.0  0.67760  0.43210  0.43870  1.0000
  C   C8        1.0  0.32240  0.56790  0.43870  1.0000
  C   C9        1.0  0.67760  0.56790  0.93870  1.0000
  C   C10       1.0  0.32240  0.43210  0.93870  1.0000
  C   C11       1.0  0.82240  0.06790  0.06130  1.0000
  C   C12       1.0  0.17760  0.93210  0.06130  1.0000
  C   C13       1.0  0.17760  0.06790  0.43870  1.0000
  C   C14       1.0  0.82240  0.93210  0.43870  1.0000
  C   C15       1.0  0.32240  0.56790  0.56130  1.0000
  C   C16       1.0  0.67760  0.43210  0.56130  1.0000
  Zn  Zn17      1.0  0.50000  0.50000  0.25000  1.0000
  Zn  Zn18      1.0  0.00000  0.00000  0.75000  1.0000
  Zn  Zn19      1.0  0.50000  0.50000  0.75000  1.0000
  Zn  Zn20      1.0  0.00000  0.00000  0.25000  1.0000
  P   P17       1.0  0.14610  0.65451  0.00000  1.0000
  P   P18       1.0  0.85390  0.34549  0.00000  1.0000
  P   P19       1.0  0.35390  0.15451  0.00000  1.0000
  P   P20       1.0  0.64610  0.84549  0.00000  1.0000
  P   P21       1.0  0.64610  0.15451  0.50000  1.0000
  P   P22       1.0  0.35390  0.84549  0.50000  1.0000
  P   P23       1.0  0.85390  0.65451  0.50000  1.0000
  P   P24       1.0  0.14610  0.34549  0.50000  1.0000
  O   O17       1.0  0.54070  0.34620  0.13250  1.0000
  O   O18       1.0  0.45930  0.65380  0.13250  1.0000
  O   O19       1.0  0.95930  0.84620  0.86750  1.0000
  O   O20       1.0  0.04070  0.15380  0.86750  1.0000
  O   O21       1.0  0.04070  0.84620  0.63250  1.0000
  O   O22       1.0  0.95930  0.15380  0.63250  1.0000
  O   O23       1.0  0.45930  0.34620  0.36750  1.0000
  O   O24       1.0  0.54070  0.65380  0.36750  1.0000
  O   O25       1.0  0.45930  0.65380  0.86750  1.0000
  O   O26       1.0  0.54070  0.34620  0.86750  1.0000
  O   O27       1.0  0.04070  0.15380  0.13250  1.0000
  O   O28       1.0  0.95930  0.84620  0.13250  1.0000
  O   O29       1.0  0.95930  0.15380  0.36750  1.0000
  O   O30       1.0  0.04070  0.84620  0.36750  1.0000
  O   O31       1.0  0.54070  0.65380  0.63250  1.0000
  O   O32       1.0  0.45930  0.34620  0.63250  1.0000
  C   C17       1.0  0.35910  0.39610  0.00000  1.0000
  C   C18       1.0  0.64090  0.60390  0.00000  1.0000
  C   C19       1.0  0.14090  0.89610  0.00000  1.0000
  C   C20       1.0  0.85910  0.10390  0.00000  1.0000
  C   C21       1.0  0.85910  0.89610  0.50000  1.0000
  C   C22       1.0  0.14090  0.10390  0.50000  1.0000
  C   C23       1.0  0.64090  0.39610  0.50000  1.0000
  C   C24       1.0  0.35910  0.60390  0.50000  1.0000
  H   H1        1.0  0.41190  0.34410  0.00000  1.0000
  H   H2        1.0  0.58810  0.65590  0.00000  1.0000
  H   H3        1.0  0.08810  0.84410  0.00000  1.0000
  H   H4        1.0  0.91190  0.15590  0.00000  1.0000
  H   H5        1.0  0.91190  0.84410  0.50000  1.0000
  H   H6        1.0  0.08810  0.15590  0.50000  1.0000
  H   H7        1.0  0.58810  0.34410  0.50000  1.0000
  H   H8        1.0  0.41190  0.65590  0.50000  1.0000
  C   C25       1.0  0.21470  0.54920  0.00000  1.0000
  C   C26       1.0  0.78530  0.45080  0.00000  1.0000
  C   C27       1.0  0.28530  0.04920  0.00000  1.0000
  C   C28       1.0  0.71470  0.95080  0.00000  1.0000
  C   C29       1.0  0.71470  0.04920  0.50000  1.0000
  C   C30       1.0  0.28530  0.95080  0.50000  1.0000
  C   C31       1.0  0.78530  0.54920  0.50000  1.0000
  C   C32       1.0  0.21470  0.45080  0.50000  1.0000
  O   O33       1.0  0.25590  0.30540  0.14640  1.0000
  O   O34       1.0  0.74410  0.69460  0.14640  1.0000
  O   O35       1.0  0.24410  0.80540  0.85360  1.0000
  O   O36       1.0  0.75590  0.19460  0.85360  1.0000
  O   O37       1.0  0.75590  0.80540  0.64640  1.0000
  O   O38       1.0  0.24410  0.19460  0.64640  1.0000
  O   O39       1.0  0.74410  0.30540  0.35360  1.0000
  O   O40       1.0  0.25590  0.69460  0.35360  1.0000
  O   O41       1.0  0.74410  0.69460  0.85360  1.0000
  O   O42       1.0  0.25590  0.30540  0.85360  1.0000
  O   O43       1.0  0.75590  0.19460  0.14640  1.0000
  O   O44       1.0  0.24410  0.80540  0.14640  1.0000
  O   O45       1.0  0.24410  0.19460  0.35360  1.0000
  O   O46       1.0  0.75590  0.80540  0.35360  1.0000
  O   O47       1.0  0.25590  0.69460  0.64640  1.0000
  O   O48       1.0  0.74410  0.30540  0.64640  1.0000
  O   O49       1.0  0.05550  0.66960  0.06360  1.0000
  O   O50       1.0  0.94450  0.33040  0.06360  1.0000
  O   O51       1.0  0.44450  0.16960  0.93640  1.0000
  O   O52       1.0  0.55550  0.83040  0.93640  1.0000
  O   O53       1.0  0.55550  0.16960  0.56360  1.0000
  O   O54       1.0  0.44450  0.83040  0.56360  1.0000
  O   O55       1.0  0.94450  0.66960  0.43640  1.0000
  O   O56       1.0  0.05550  0.33040  0.43640  1.0000
  O   O57       1.0  0.94450  0.33040  0.93640  1.0000
  O   O58       1.0  0.05550  0.66960  0.93640  1.0000
  O   O59       1.0  0.55550  0.83040  0.06360  1.0000
  O   O60       1.0  0.44450  0.16960  0.06360  1.0000
  O   O61       1.0  0.44450  0.83040  0.43640  1.0000
  O   O62       1.0  0.55550  0.16960  0.43640  1.0000
  O   O63       1.0  0.05550  0.33040  0.56360  1.0000
  O   O64       1.0  0.94450  0.66960  0.56360  1.0000
  C   C33       1.0  0.25080  0.50980  0.06120  1.0000
  C   C34       1.0  0.74920  0.49020  0.06120  1.0000
  C   C35       1.0  0.24920  0.00980  0.93880  1.0000
  C   C36       1.0  0.75080  0.99020  0.93880  1.0000
  C   C37       1.0  0.75080  0.00980  0.56120  1.0000
  C   C38       1.0  0.24920  0.99020  0.56120  1.0000
  C   C39       1.0  0.74920  0.50980  0.43880  1.0000
  C   C40       1.0  0.25080  0.49020  0.43880  1.0000
  C   C41       1.0  0.74920  0.49020  0.93880  1.0000
  C   C42       1.0  0.25080  0.50980  0.93880  1.0000
  C   C43       1.0  0.75080  0.99020  0.06120  1.0000
  C   C44       1.0  0.24920  0.00980  0.06120  1.0000
  C   C45       1.0  0.24920  0.99020  0.43880  1.0000
  C   C46       1.0  0.75080  0.00980  0.43880  1.0000
  C   C47       1.0  0.25080  0.49020  0.56120  1.0000
  C   C48       1.0  0.74920  0.50980  0.56120  1.0000
  H   H9        1.0  0.22630  0.53630  0.10270  1.0000
  H   H10       1.0  0.77370  0.46370  0.10270  1.0000
  H   H11       1.0  0.27370  0.03630  0.89730  1.0000
  H   H12       1.0  0.72630  0.96370  0.89730  1.0000
  H   H13       1.0  0.72630  0.03630  0.60270  1.0000
  H   H14       1.0  0.27370  0.96370  0.60270  1.0000
  H   H15       1.0  0.77370  0.53630  0.39730  1.0000
  H   H16       1.0  0.22630  0.46370  0.39730  1.0000
  H   H17       1.0  0.77370  0.46370  0.89730  1.0000
  H   H18       1.0  0.22630  0.53630  0.89730  1.0000
  H   H19       1.0  0.72630  0.96370  0.10270  1.0000
  H   H20       1.0  0.27370  0.03630  0.10270  1.0000
  H   H21       1.0  0.27370  0.96370  0.39730  1.0000
  H   H22       1.0  0.72630  0.03630  0.39730  1.0000
  H   H23       1.0  0.22630  0.46370  0.60270  1.0000
  H   H24       1.0  0.77370  0.53630  0.60270  1.0000
  O   O65       1.0  0.29650  0.71260  0.00000  1.0000
  O   O66       1.0  0.70350  0.28740  0.00000  1.0000
  O   O67       1.0  0.20350  0.21260  0.00000  1.0000
  O   O68       1.0  0.79650  0.78740  0.00000  1.0000
  O   O69       1.0  0.79650  0.21260  0.50000  1.0000
  O   O70       1.0  0.20350  0.78740  0.50000  1.0000
  O   O71       1.0  0.70350  0.71260  0.50000  1.0000
  O   O72       1.0  0.29650  0.28740  0.50000  1.0000
