data_image0
_chemical_formula_structural       Zn20O16P16C16O16P8C16O16C8O16C8O8H24
_chemical_formula_sum              "Zn20 O72 P24 C48 H24"
_cell_length_a       8.44253
_cell_length_b       16.285
_cell_length_c       19.8132
_cell_angle_alpha    90
_cell_angle_beta     90
_cell_angle_gamma    90

_space_group_name_H-M_alt    "P 1"
_space_group_IT_number       1

loop_
  _space_group_symop_operation_xyz
  'x, y, z'

loop_
  _atom_site_type_symbol
  _atom_site_label
  _atom_site_symmetry_multiplicity
  _atom_site_fract_x
  _atom_site_fract_y
  _atom_site_fract_z
  _atom_site_occupancy
  Zn  Zn1       1.0  0.60390  0.24700  0.08806  1.0000
  Zn  Zn2       1.0  0.39610  0.75300  0.08806  1.0000
  Zn  Zn3       1.0  0.89610  0.74700  0.91194  1.0000
  Zn  Zn4       1.0  0.10390  0.25300  0.91194  1.0000
  Zn  Zn5       1.0  0.10390  0.74700  0.58806  1.0000
  Zn  Zn6       1.0  0.89610  0.25300  0.58806  1.0000
  Zn  Zn7       1.0  0.39610  0.24700  0.41194  1.0000
  Zn  Zn8       1.0  0.60390  0.75300  0.41194  1.0000
  Zn  Zn9       1.0  0.39610  0.75300  0.91194  1.0000
  Zn  Zn10      1.0  0.60390  0.24700  0.91194  1.0000
  Zn  Zn11      1.0  0.10390  0.25300  0.08806  1.0000
  Zn  Zn12      1.0  0.89610  0.74700  0.08806  1.0000
  Zn  Zn13      1.0  0.89610  0.25300  0.41194  1.0000
  Zn  Zn14      1.0  0.10390  0.74700  0.41194  1.0000
  Zn  Zn15      1.0  0.60390  0.75300  0.58806  1.0000
  Zn  Zn16      1.0  0.39610  0.24700  0.58806  1.0000
  Zn  Zn17      1.0  0.00000  0.00000  0.25000  1.0000
  Zn  Zn18      1.0  0.50000  0.50000  0.75000  1.0000
  Zn  Zn19      1.0  0.00000  0.00000  0.75000  1.0000
  Zn  Zn20      1.0  0.50000  0.50000  0.25000  1.0000
  O   O1        1.0  0.73830  0.18980  0.15040  1.0000
  O   O2        1.0  0.26170  0.81020  0.15040  1.0000
  O   O3        1.0  0.76170  0.68980  0.84960  1.0000
  O   O4        1.0  0.23830  0.31020  0.84960  1.0000
  O   O5        1.0  0.23830  0.68980  0.65040  1.0000
  O   O6        1.0  0.76170  0.31020  0.65040  1.0000
  O   O7        1.0  0.26170  0.18980  0.34960  1.0000
  O   O8        1.0  0.73830  0.81020  0.34960  1.0000
  O   O9        1.0  0.26170  0.81020  0.84960  1.0000
  O   O10       1.0  0.73830  0.18980  0.84960  1.0000
  O   O11       1.0  0.23830  0.31020  0.15040  1.0000
  O   O12       1.0  0.76170  0.68980  0.15040  1.0000
  O   O13       1.0  0.76170  0.31020  0.34960  1.0000
  O   O14       1.0  0.23830  0.68980  0.34960  1.0000
  O   O15       1.0  0.73830  0.81020  0.65040  1.0000
  O   O16       1.0  0.26170  0.18980  0.65040  1.0000
  P   P1        1.0  0.86270  0.12360  0.13960  1.0000
  P   P2        1.0  0.13730  0.87640  0.13960  1.0000
  P   P3        1.0  0.63730  0.62360  0.86040  1.0000
  P   P4        1.0  0.36270  0.37640  0.86040  1.0000
  P   P5        1.0  0.36270  0.62360  0.63960  1.0000
  P   P6        1.0  0.63730  0.37640  0.63960  1.0000
  P   P7        1.0  0.13730  0.12360  0.36040  1.0000
  P   P8        1.0  0.86270  0.87640  0.36040  1.0000
  P   P9        1.0  0.13730  0.87640  0.86040  1.0000
  P   P10       1.0  0.86270  0.12360  0.86040  1.0000
  P   P11       1.0  0.36270  0.37640  0.13960  1.0000
  P   P12       1.0  0.63730  0.62360  0.13960  1.0000
  P   P13       1.0  0.63730  0.37640  0.36040  1.0000
  P   P14       1.0  0.36270  0.62360  0.36040  1.0000
  P   P15       1.0  0.86270  0.87640  0.63960  1.0000
  P   P16       1.0  0.13730  0.12360  0.63960  1.0000
  C   C1        1.0  0.81950  0.06650  0.06102  1.0000
  C   C2        1.0  0.18050  0.93350  0.06102  1.0000
  C   C3        1.0  0.68050  0.56650  0.93898  1.0000
  C   C4        1.0  0.31950  0.43350  0.93898  1.0000
  C   C5        1.0  0.31950  0.56650  0.56102  1.0000
  C   C6        1.0  0.68050  0.43350  0.56102  1.0000
  C   C7        1.0  0.18050  0.06650  0.43898  1.0000
  C   C8        1.0  0.81950  0.93350  0.43898  1.0000
  C   C9        1.0  0.18050  0.93350  0.93898  1.0000
  C   C10       1.0  0.81950  0.06650  0.93898  1.0000
  C   C11       1.0  0.31950  0.43350  0.06102  1.0000
  C   C12       1.0  0.68050  0.56650  0.06102  1.0000
  C   C13       1.0  0.68050  0.43350  0.43898  1.0000
  C   C14       1.0  0.31950  0.56650  0.43898  1.0000
  C   C15       1.0  0.81950  0.93350  0.56102  1.0000
  C   C16       1.0  0.18050  0.06650  0.56102  1.0000
  O   O17       1.0  0.02970  0.15800  0.13540  1.0000
  O   O18       1.0  0.97030  0.84200  0.13540  1.0000
  O   O19       1.0  0.47030  0.65800  0.86460  1.0000
  O   O20       1.0  0.52970  0.34200  0.86460  1.0000
  O   O21       1.0  0.52970  0.65800  0.63540  1.0000
  O   O22       1.0  0.47030  0.34200  0.63540  1.0000
  O   O23       1.0  0.97030  0.15800  0.36460  1.0000
  O   O24       1.0  0.02970  0.84200  0.36460  1.0000
  O   O25       1.0  0.97030  0.84200  0.86460  1.0000
  O   O26       1.0  0.02970  0.15800  0.86460  1.0000
  O   O27       1.0  0.52970  0.34200  0.13540  1.0000
  O   O28       1.0  0.47030  0.65800  0.13540  1.0000
  O   O29       1.0  0.47030  0.34200  0.36460  1.0000
  O   O30       1.0  0.52970  0.65800  0.36460  1.0000
  O   O31       1.0  0.02970  0.84200  0.63540  1.0000
  O   O32       1.0  0.97030  0.15800  0.63540  1.0000
  P   P17       1.0  0.65150  0.84210  0.00000  1.0000
  P   P18       1.0  0.34850  0.15790  0.00000  1.0000
  P   P19       1.0  0.84850  0.34210  0.00000  1.0000
  P   P20       1.0  0.15150  0.65790  0.00000  1.0000
  P   P21       1.0  0.15150  0.34210  0.50000  1.0000
  P   P22       1.0  0.84850  0.65790  0.50000  1.0000
  P   P23       1.0  0.34850  0.84210  0.50000  1.0000
  P   P24       1.0  0.65150  0.15790  0.50000  1.0000
  C   C17       1.0  0.74920  0.98930  0.06104  1.0000
  C   C18       1.0  0.25080  0.01070  0.06104  1.0000
  C   C19       1.0  0.75080  0.48930  0.93896  1.0000
  C   C20       1.0  0.24920  0.51070  0.93896  1.0000
  C   C21       1.0  0.24920  0.48930  0.56104  1.0000
  C   C22       1.0  0.75080  0.51070  0.56104  1.0000
  C   C23       1.0  0.25080  0.98930  0.43896  1.0000
  C   C24       1.0  0.74920  0.01070  0.43896  1.0000
  C   C25       1.0  0.25080  0.01070  0.93896  1.0000
  C   C26       1.0  0.74920  0.98930  0.93896  1.0000
  C   C27       1.0  0.24920  0.51070  0.06104  1.0000
  C   C28       1.0  0.75080  0.48930  0.06104  1.0000
  C   C29       1.0  0.75080  0.51070  0.43896  1.0000
  C   C30       1.0  0.24920  0.48930  0.43896  1.0000
  C   C31       1.0  0.74920  0.01070  0.56104  1.0000
  C   C32       1.0  0.25080  0.98930  0.56104  1.0000
  O   O33       1.0  0.84790  0.06290  0.19780  1.0000
  O   O34       1.0  0.15210  0.93710  0.19780  1.0000
  O   O35       1.0  0.65210  0.56290  0.80220  1.0000
  O   O36       1.0  0.34790  0.43710  0.80220  1.0000
  O   O37       1.0  0.34790  0.56290  0.69780  1.0000
  O   O38       1.0  0.65210  0.43710  0.69780  1.0000
  O   O39       1.0  0.15210  0.06290  0.30220  1.0000
  O   O40       1.0  0.84790  0.93710  0.30220  1.0000
  O   O41       1.0  0.15210  0.93710  0.80220  1.0000
  O   O42       1.0  0.84790  0.06290  0.80220  1.0000
  O   O43       1.0  0.34790  0.43710  0.19780  1.0000
  O   O44       1.0  0.65210  0.56290  0.19780  1.0000
  O   O45       1.0  0.65210  0.43710  0.30220  1.0000
  O   O46       1.0  0.34790  0.56290  0.30220  1.0000
  O   O47       1.0  0.84790  0.93710  0.69780  1.0000
  O   O48       1.0  0.15210  0.06290  0.69780  1.0000
  C   C33       1.0  0.71900  0.95030  0.00000  1.0000
  C   C34       1.0  0.28100  0.04970  0.00000  1.0000
  C   C35       1.0  0.78100  0.45030  0.00000  1.0000
  C   C36       1.0  0.21900  0.54970  0.00000  1.0000
  C   C37       1.0  0.21900  0.45030  0.50000  1.0000
  C   C38       1.0  0.78100  0.54970  0.50000  1.0000
  C   C39       1.0  0.28100  0.95030  0.50000  1.0000
  C   C40       1.0  0.71900  0.04970  0.50000  1.0000
  O   O49       1.0  0.56260  0.82640  0.06560  1.0000
  O   O50       1.0  0.43740  0.17360  0.06560  1.0000
  O   O51       1.0  0.93740  0.32640  0.93440  1.0000
  O   O52       1.0  0.06260  0.67360  0.93440  1.0000
  O   O53       1.0  0.06260  0.32640  0.56560  1.0000
  O   O54       1.0  0.93740  0.67360  0.56560  1.0000
  O   O55       1.0  0.43740  0.82640  0.43440  1.0000
  O   O56       1.0  0.56260  0.17360  0.43440  1.0000
  O   O57       1.0  0.43740  0.17360  0.93440  1.0000
  O   O58       1.0  0.56260  0.82640  0.93440  1.0000
  O   O59       1.0  0.06260  0.67360  0.06560  1.0000
  O   O60       1.0  0.93740  0.32640  0.06560  1.0000
  O   O61       1.0  0.93740  0.67360  0.43440  1.0000
  O   O62       1.0  0.06260  0.32640  0.43440  1.0000
  O   O63       1.0  0.56260  0.17360  0.56560  1.0000
  O   O64       1.0  0.43740  0.82640  0.56560  1.0000
  C   C41       1.0  0.85800  0.10340  0.00000  1.0000
  C   C42       1.0  0.14200  0.89660  0.00000  1.0000
  C   C43       1.0  0.64200  0.60340  0.00000  1.0000
  C   C44       1.0  0.35800  0.39660  0.00000  1.0000
  C   C45       1.0  0.35800  0.60340  0.50000  1.0000
  C   C46       1.0  0.64200  0.39660  0.50000  1.0000
  C   C47       1.0  0.14200  0.10340  0.50000  1.0000
  C   C48       1.0  0.85800  0.89660  0.50000  1.0000
  O   O65       1.0  0.80200  0.79080  0.00000  1.0000
  O   O66       1.0  0.19800  0.20920  0.00000  1.0000
  O   O67       1.0  0.69800  0.29080  0.00000  1.0000
  O   O68       1.0  0.30200  0.70920  0.00000  1.0000
  O   O69       1.0  0.30200  0.29080  0.50000  1.0000
  O   O70       1.0  0.69800  0.70920  0.50000  1.0000
  O   O71       1.0  0.19800  0.79080  0.50000  1.0000
  O   O72       1.0  0.80200  0.20920  0.50000  1.0000
  H   H1        1.0  0.72197  0.96314  0.10287  1.0000
  H   H2        1.0  0.27803  0.03686  0.10287  1.0000
  H   H3        1.0  0.77803  0.46314  0.89713  1.0000
  H   H4        1.0  0.22197  0.53686  0.89713  1.0000
  H   H5        1.0  0.22197  0.46314  0.60287  1.0000
  H   H6        1.0  0.77803  0.53686  0.60287  1.0000
  H   H7        1.0  0.27803  0.96314  0.39713  1.0000
  H   H8        1.0  0.72197  0.03686  0.39713  1.0000
  H   H9        1.0  0.27803  0.03686  0.89713  1.0000
  H   H10       1.0  0.72197  0.96314  0.89713  1.0000
  H   H11       1.0  0.22197  0.53686  0.10287  1.0000
  H   H12       1.0  0.77803  0.46314  0.10287  1.0000
  H   H13       1.0  0.77803  0.53686  0.39713  1.0000
  H   H14       1.0  0.22197  0.46314  0.39713  1.0000
  H   H15       1.0  0.72197  0.03686  0.60287  1.0000
  H   H16       1.0  0.27803  0.96314  0.60287  1.0000
  H   H17       1.0  0.91234  0.15528  0.00000  1.0000
  H   H18       1.0  0.08766  0.84472  0.00000  1.0000
  H   H19       1.0  0.58766  0.65528  0.00000  1.0000
  H   H20       1.0  0.41234  0.34472  0.00000  1.0000
  H   H21       1.0  0.41234  0.65528  0.50000  1.0000
  H   H22       1.0  0.58766  0.34472  0.50000  1.0000
  H   H23       1.0  0.08766  0.15528  0.50000  1.0000
  H   H24       1.0  0.91234  0.84472  0.50000  1.0000
