data_image0
_chemical_formula_structural       Co4C4H4B4H4B4H4C4H4B4H4B4H4B4H4B4H4B4H4B4H4B4H4B4H4B4H4B4H4B4H4B4H4C4H4B4H4C4H4B4H4B4H4B4H4
_chemical_formula_sum              "Co4 C16 H88 B72"
_cell_length_a       6.9544
_cell_length_b       29.4636
_cell_length_c       11.239
_cell_angle_alpha    90
_cell_angle_beta     92.817
_cell_angle_gamma    90

_space_group_name_H-M_alt    "P 1"
_space_group_IT_number       1

loop_
  _space_group_symop_operation_xyz
  'x, y, z'

loop_
  _atom_site_type_symbol
  _atom_site_label
  _atom_site_symmetry_multiplicity
  _atom_site_fract_x
  _atom_site_fract_y
  _atom_site_fract_z
  _atom_site_occupancy
  Co  Co1       1.0  0.34419  0.83883  0.01653  1.0000
  Co  Co2       1.0  0.34419  0.16117  0.51653  1.0000
  Co  Co3       1.0  0.84419  0.33883  0.01653  1.0000
  Co  Co4       1.0  0.84419  0.66117  0.51653  1.0000
  C   C1        1.0  0.40900  0.83756  0.84051  1.0000
  C   C2        1.0  0.40900  0.16244  0.34051  1.0000
  C   C3        1.0  0.90900  0.33756  0.84051  1.0000
  C   C4        1.0  0.90900  0.66244  0.34051  1.0000
  H   H1        1.0  0.43490  0.80120  0.81670  1.0000
  H   H2        1.0  0.43490  0.19880  0.31670  1.0000
  H   H3        1.0  0.93490  0.30120  0.81670  1.0000
  H   H4        1.0  0.93490  0.69880  0.31670  1.0000
  B   B1        1.0  0.17670  0.85464  0.86115  1.0000
  B   B2        1.0  0.17670  0.14536  0.36115  1.0000
  B   B3        1.0  0.67670  0.35464  0.86115  1.0000
  B   B4        1.0  0.67670  0.64536  0.36115  1.0000
  H   H5        1.0  0.04490  0.83290  0.85180  1.0000
  H   H6        1.0  0.04490  0.16710  0.35180  1.0000
  H   H7        1.0  0.54490  0.33290  0.85180  1.0000
  H   H8        1.0  0.54490  0.66710  0.35180  1.0000
  B   B5        1.0  0.14000  0.79735  0.25511  1.0000
  B   B6        1.0  0.14000  0.20265  0.75511  1.0000
  B   B7        1.0  0.64000  0.29735  0.25511  1.0000
  B   B8        1.0  0.64000  0.70265  0.75511  1.0000
  H   H9        1.0  0.02290  0.80330  0.31820  1.0000
  H   H10       1.0  0.02290  0.19670  0.81820  1.0000
  H   H11       1.0  0.52290  0.30330  0.31820  1.0000
  H   H12       1.0  0.52290  0.69670  0.81820  1.0000
  C   C5        1.0  0.24980  0.77335  0.03215  1.0000
  C   C6        1.0  0.24980  0.22665  0.53215  1.0000
  C   C7        1.0  0.74980  0.27335  0.03215  1.0000
  C   C8        1.0  0.74980  0.72665  0.53215  1.0000
  H   H13       1.0  0.20340  0.76140  0.94060  1.0000
  H   H14       1.0  0.20340  0.23860  0.44060  1.0000
  H   H15       1.0  0.70340  0.26140  0.94060  1.0000
  H   H16       1.0  0.70340  0.73860  0.44060  1.0000
  B   B9        1.0  0.45170  0.90505  0.01014  1.0000
  B   B10       1.0  0.45170  0.09495  0.51014  1.0000
  B   B11       1.0  0.95170  0.40505  0.01014  1.0000
  B   B12       1.0  0.95170  0.59495  0.51014  1.0000
  H   H17       1.0  0.50390  0.91730  0.10040  1.0000
  H   H18       1.0  0.50390  0.08270  0.60040  1.0000
  H   H19       1.0  0.00390  0.41730  0.10040  1.0000
  H   H20       1.0  0.00390  0.58270  0.60040  1.0000
  B   B13       1.0  0.27510  0.84427  0.19809  1.0000
  B   B14       1.0  0.27510  0.15573  0.69809  1.0000
  B   B15       1.0  0.77510  0.34427  0.19809  1.0000
  B   B16       1.0  0.77510  0.65573  0.69809  1.0000
  H   H21       1.0  0.24820  0.88000  0.22730  1.0000
  H   H22       1.0  0.24820  0.12000  0.72730  1.0000
  H   H23       1.0  0.74820  0.38000  0.22730  1.0000
  H   H24       1.0  0.74820  0.62000  0.72730  1.0000
  B   B17       1.0  0.30410  0.87053  0.73133  1.0000
  B   B18       1.0  0.30410  0.12947  0.23133  1.0000
  B   B19       1.0  0.80410  0.37053  0.73133  1.0000
  B   B20       1.0  0.80410  0.62947  0.23133  1.0000
  H   H25       1.0  0.25670  0.85830  0.64020  1.0000
  H   H26       1.0  0.25670  0.14170  0.14020  1.0000
  H   H27       1.0  0.75670  0.35830  0.64020  1.0000
  H   H28       1.0  0.75670  0.64170  0.14020  1.0000
  B   B21       1.0  0.19740  0.90005  0.96831  1.0000
  B   B22       1.0  0.19740  0.09995  0.46831  1.0000
  B   B23       1.0  0.69740  0.40005  0.96831  1.0000
  B   B24       1.0  0.69740  0.59995  0.46831  1.0000
  H   H29       1.0  0.08030  0.90920  0.02890  1.0000
  H   H30       1.0  0.08030  0.09080  0.52890  1.0000
  H   H31       1.0  0.58030  0.40920  0.02890  1.0000
  H   H32       1.0  0.58030  0.59080  0.52890  1.0000
  B   B25       1.0  0.57720  0.92043  0.87880  1.0000
  B   B26       1.0  0.57720  0.07957  0.37880  1.0000
  B   B27       1.0  0.07720  0.42043  0.87880  1.0000
  B   B28       1.0  0.07720  0.57957  0.37880  1.0000
  H   H33       1.0  0.71120  0.94150  0.88530  1.0000
  H   H34       1.0  0.71120  0.05850  0.38530  1.0000
  H   H35       1.0  0.21120  0.44150  0.88530  1.0000
  H   H36       1.0  0.21120  0.55850  0.38530  1.0000
  B   B29       1.0  0.12200  0.75343  0.14599  1.0000
  B   B30       1.0  0.12200  0.24657  0.64599  1.0000
  B   B31       1.0  0.62200  0.25343  0.14599  1.0000
  B   B32       1.0  0.62200  0.74657  0.64599  1.0000
  H   H37       1.0  0.99380  0.73050  0.13500  1.0000
  H   H38       1.0  0.99380  0.26950  0.63500  1.0000
  H   H39       1.0  0.49380  0.23050  0.13500  1.0000
  H   H40       1.0  0.49380  0.76950  0.63500  1.0000
  B   B33       1.0  0.29350  0.74877  0.26919  1.0000
  B   B34       1.0  0.29350  0.25123  0.76919  1.0000
  B   B35       1.0  0.79350  0.24877  0.26919  1.0000
  B   B36       1.0  0.79350  0.75123  0.76919  1.0000
  H   H41       1.0  0.27800  0.72320  0.34190  1.0000
  H   H42       1.0  0.27800  0.27680  0.84190  1.0000
  H   H43       1.0  0.77800  0.22320  0.34190  1.0000
  H   H44       1.0  0.77800  0.77680  0.84190  1.0000
  B   B37       1.0  0.55250  0.87641  0.77219  1.0000
  B   B38       1.0  0.55250  0.12359  0.27219  1.0000
  B   B39       1.0  0.05250  0.37641  0.77219  1.0000
  B   B40       1.0  0.05250  0.62359  0.27219  1.0000
  H   H45       1.0  0.66790  0.86820  0.70950  1.0000
  H   H46       1.0  0.66790  0.13180  0.20950  1.0000
  H   H47       1.0  0.16790  0.36820  0.70950  1.0000
  H   H48       1.0  0.16790  0.63180  0.20950  1.0000
  B   B41       1.0  0.34450  0.94296  0.90270  1.0000
  B   B42       1.0  0.34450  0.05704  0.40270  1.0000
  B   B43       1.0  0.84450  0.44296  0.90270  1.0000
  B   B44       1.0  0.84450  0.55704  0.40270  1.0000
  H   H49       1.0  0.32440  0.97970  0.92440  1.0000
  H   H50       1.0  0.32440  0.02030  0.42440  1.0000
  H   H51       1.0  0.82440  0.47970  0.92440  1.0000
  H   H52       1.0  0.82440  0.52030  0.42440  1.0000
  B   B45       1.0  0.35730  0.73257  0.12446  1.0000
  B   B46       1.0  0.35730  0.26743  0.62446  1.0000
  B   B47       1.0  0.85730  0.23257  0.12446  1.0000
  B   B48       1.0  0.85730  0.76743  0.62446  1.0000
  H   H53       1.0  0.38510  0.69640  0.09940  1.0000
  H   H54       1.0  0.38510  0.30360  0.59940  1.0000
  H   H55       1.0  0.88510  0.19640  0.09940  1.0000
  H   H56       1.0  0.88510  0.80360  0.59940  1.0000
  B   B49       1.0  0.10730  0.81240  0.10111  1.0000
  B   B50       1.0  0.10730  0.18760  0.60111  1.0000
  B   B51       1.0  0.60730  0.31240  0.10111  1.0000
  B   B52       1.0  0.60730  0.68760  0.60111  1.0000
  H   H57       1.0  0.96850  0.82720  0.06410  1.0000
  H   H58       1.0  0.96850  0.17280  0.56410  1.0000
  H   H59       1.0  0.46850  0.32720  0.06410  1.0000
  H   H60       1.0  0.46850  0.67280  0.56410  1.0000
  B   B53       1.0  0.51250  0.82283  0.17163  1.0000
  B   B54       1.0  0.51250  0.17717  0.67163  1.0000
  B   B55       1.0  0.01250  0.32283  0.17163  1.0000
  B   B56       1.0  0.01250  0.67717  0.67163  1.0000
  H   H61       1.0  0.64440  0.84460  0.18120  1.0000
  H   H62       1.0  0.64440  0.15540  0.68120  1.0000
  H   H63       1.0  0.14440  0.34460  0.18120  1.0000
  H   H64       1.0  0.14440  0.65540  0.68120  1.0000
  C   C9        1.0  0.56390  0.86565  0.92452  1.0000
  C   C10       1.0  0.56390  0.13435  0.42452  1.0000
  C   C11       1.0  0.06390  0.36565  0.92452  1.0000
  C   C12       1.0  0.06390  0.63435  0.42452  1.0000
  H   H65       1.0  0.70070  0.84980  0.96110  1.0000
  H   H66       1.0  0.70070  0.15020  0.46110  1.0000
  H   H67       1.0  0.20070  0.34980  0.96110  1.0000
  H   H68       1.0  0.20070  0.65020  0.46110  1.0000
  B   B57       1.0  0.38940  0.80406  0.29917  1.0000
  B   B58       1.0  0.38940  0.19594  0.79917  1.0000
  B   B59       1.0  0.88940  0.30406  0.29917  1.0000
  B   B60       1.0  0.88940  0.69594  0.79917  1.0000
  H   H69       1.0  0.43820  0.81450  0.39160  1.0000
  H   H70       1.0  0.43820  0.18550  0.89160  1.0000
  H   H71       1.0  0.93820  0.31450  0.39160  1.0000
  H   H72       1.0  0.93820  0.68550  0.89160  1.0000
  C   C13       1.0  0.47560  0.77953  0.07147  1.0000
  C   C14       1.0  0.47560  0.22047  0.57147  1.0000
  C   C15       1.0  0.97560  0.27953  0.07147  1.0000
  C   C16       1.0  0.97560  0.72047  0.57147  1.0000
  H   H73       1.0  0.59070  0.77220  0.00790  1.0000
  H   H74       1.0  0.59070  0.22780  0.50790  1.0000
  H   H75       1.0  0.09070  0.27220  0.00790  1.0000
  H   H76       1.0  0.09070  0.72780  0.50790  1.0000
  B   B61       1.0  0.40310  0.92550  0.75652  1.0000
  B   B62       1.0  0.40310  0.07450  0.25652  1.0000
  B   B63       1.0  0.90310  0.42550  0.75652  1.0000
  B   B64       1.0  0.90310  0.57450  0.25652  1.0000
  H   H77       1.0  0.41850  0.95050  0.68260  1.0000
  H   H78       1.0  0.41850  0.04950  0.18260  1.0000
  H   H79       1.0  0.91850  0.45050  0.68260  1.0000
  H   H80       1.0  0.91850  0.54950  0.18260  1.0000
  B   B65       1.0  0.17310  0.91197  0.81041  1.0000
  B   B66       1.0  0.17310  0.08803  0.31041  1.0000
  B   B67       1.0  0.67310  0.41197  0.81041  1.0000
  B   B68       1.0  0.67310  0.58803  0.31041  1.0000
  H   H81       1.0  0.03860  0.92790  0.77060  1.0000
  H   H82       1.0  0.03860  0.07210  0.27060  1.0000
  H   H83       1.0  0.53860  0.42790  0.77060  1.0000
  H   H84       1.0  0.53860  0.57210  0.27060  1.0000
  B   B69       1.0  0.52260  0.76397  0.21640  1.0000
  B   B70       1.0  0.52260  0.23603  0.71640  1.0000
  B   B71       1.0  0.02260  0.26397  0.21640  1.0000
  B   B72       1.0  0.02260  0.73603  0.71640  1.0000
  H   H85       1.0  0.66010  0.74820  0.25220  1.0000
  H   H86       1.0  0.66010  0.25180  0.75220  1.0000
  H   H87       1.0  0.16010  0.24820  0.25220  1.0000
  H   H88       1.0  0.16010  0.75180  0.75220  1.0000
