data_image0
_chemical_formula_structural       Bi2O16N4C20H24
_chemical_formula_sum              "Bi2 O16 N4 C20 H24"
_cell_length_a       9.043
_cell_length_b       9.85
_cell_length_c       10.473
_cell_angle_alpha    107.47
_cell_angle_beta     113.02
_cell_angle_gamma    91.91

_space_group_name_H-M_alt    "P 1"
_space_group_IT_number       1

loop_
  _space_group_symop_operation_xyz
  'x, y, z'

loop_
  _atom_site_type_symbol
  _atom_site_label
  _atom_site_symmetry_multiplicity
  _atom_site_fract_x
  _atom_site_fract_y
  _atom_site_fract_z
  _atom_site_occupancy
  Bi  Bi1       1.0  0.17673  0.07426  0.44100  1.0000
  Bi  Bi2       1.0  0.82327  0.92574  0.55900  1.0000
  O   O1        1.0  0.94970  0.13640  0.50280  1.0000
  O   O2        1.0  0.05030  0.86360  0.49720  1.0000
  O   O3        1.0  0.84590  0.33930  0.56760  1.0000
  O   O4        1.0  0.15410  0.66070  0.43240  1.0000
  O   O5        1.0  0.02430  0.91640  0.20630  1.0000
  O   O6        1.0  0.97570  0.08360  0.79370  1.0000
  O   O7        1.0  0.77110  0.83660  0.03370  1.0000
  O   O8        1.0  0.22890  0.16340  0.96630  1.0000
  O   O9        1.0  0.36310  0.94720  0.35250  1.0000
  O   O10       1.0  0.63690  0.05280  0.64750  1.0000
  O   O11       1.0  0.57570  0.96140  0.29460  1.0000
  O   O12       1.0  0.42430  0.03860  0.70540  1.0000
  O   O13       1.0  0.26290  0.31700  0.62090  1.0000
  O   O14       1.0  0.73710  0.68300  0.37910  1.0000
  O   O15       1.0  0.46180  0.50720  0.73500  1.0000
  O   O16       1.0  0.53820  0.49280  0.26500  1.0000
  N   N1        1.0  0.98650  0.19380  0.28820  1.0000
  N   N2        1.0  0.01350  0.80620  0.71180  1.0000
  N   N3        1.0  0.34480  0.23640  0.38770  1.0000
  N   N4        1.0  0.65520  0.76360  0.61230  1.0000
  C   C1        1.0  0.90240  0.25390  0.48690  1.0000
  C   C2        1.0  0.09760  0.74610  0.51310  1.0000
  C   C3        1.0  0.93610  0.30840  0.38200  1.0000
  C   C4        1.0  0.06390  0.69160  0.61800  1.0000
  C   C5        1.0  0.87570  0.93290  0.13350  1.0000
  C   C6        1.0  0.12430  0.06710  0.86650  1.0000
  C   C7        1.0  0.83870  0.08510  0.17940  1.0000
  C   C8        1.0  0.16130  0.91490  0.82060  1.0000
  C   C9        1.0  0.06910  0.24640  0.20720  1.0000
  C   C10       1.0  0.93090  0.75360  0.79280  1.0000
  C   C11       1.0  0.24030  0.33080  0.31620  1.0000
  C   C12       1.0  0.75970  0.66920  0.68380  1.0000
  C   C13       1.0  0.46000  0.01100  0.31990  1.0000
  C   C14       1.0  0.54000  0.98900  0.68010  1.0000
  C   C15       1.0  0.42570  0.15400  0.29840  1.0000
  C   C16       1.0  0.57430  0.84600  0.70160  1.0000
  C   C17       1.0  0.39410  0.39220  0.64260  1.0000
  C   C18       1.0  0.60590  0.60780  0.35740  1.0000
  C   C19       1.0  0.47000  0.32830  0.53820  1.0000
  C   C20       1.0  0.53000  0.67170  0.46180  1.0000
  H   H1        1.0  0.83900  0.33680  0.32120  1.0000
  H   H2        1.0  0.16100  0.66320  0.67880  1.0000
  H   H3        1.0  0.02210  0.39240  0.43570  1.0000
  H   H4        1.0  0.97790  0.60760  0.56430  1.0000
  H   H5        1.0  0.78880  0.11260  0.09240  1.0000
  H   H6        1.0  0.21120  0.88740  0.90760  1.0000
  H   H7        1.0  0.76070  0.08550  0.22190  1.0000
  H   H8        1.0  0.23930  0.91450  0.77810  1.0000
  H   H9        1.0  0.00500  0.30820  0.15900  1.0000
  H   H10       1.0  0.99500  0.69180  0.84100  1.0000
  H   H11       1.0  0.07690  0.16460  0.13200  1.0000
  H   H12       1.0  0.92310  0.83540  0.86800  1.0000
  H   H13       1.0  0.29070  0.36830  0.26440  1.0000
  H   H14       1.0  0.70930  0.63170  0.73560  1.0000
  H   H15       1.0  0.23190  0.41210  0.39150  1.0000
  H   H16       1.0  0.76810  0.58790  0.60850  1.0000
  H   H17       1.0  0.52780  0.21270  0.32340  1.0000
  H   H18       1.0  0.47220  0.78730  0.67660  1.0000
  H   H19       1.0  0.35710  0.13580  0.19500  1.0000
  H   H20       1.0  0.64290  0.86420  0.80500  1.0000
  H   H21       1.0  0.52980  0.40570  0.52880  1.0000
  H   H22       1.0  0.47020  0.59430  0.47120  1.0000
  H   H23       1.0  0.54710  0.26980  0.57870  1.0000
  H   H24       1.0  0.45290  0.73020  0.42130  1.0000
