data_image0
_chemical_formula_structural       CrO2C2H2NaC2H2O2C2H2O8
_chemical_formula_sum              "Cr1 O12 C6 H6 Na1"
_cell_length_a       6.5779
_cell_length_b       7.9856
_cell_length_c       8.1362
_cell_angle_alpha    94.93
_cell_angle_beta     91.663
_cell_angle_gamma    110.889

_space_group_name_H-M_alt    "P 1"
_space_group_IT_number       1

loop_
  _space_group_symop_operation_xyz
  'x, y, z'

loop_
  _atom_site_type_symbol
  _atom_site_label
  _atom_site_symmetry_multiplicity
  _atom_site_fract_x
  _atom_site_fract_y
  _atom_site_fract_z
  _atom_site_occupancy
  Cr  Cr1       1.0  0.50000  0.50000  0.00000  1.0000
  O   O1        1.0  0.63850  0.46400  0.79520  1.0000
  O   O2        1.0  0.36150  0.53600  0.20480  1.0000
  C   C1        1.0  0.73490  0.58650  0.70350  1.0000
  C   C2        1.0  0.26510  0.41350  0.29650  1.0000
  H   H1        1.0  0.74900  0.70410  0.73970  1.0000
  H   H2        1.0  0.25100  0.29590  0.26030  1.0000
  Na  Na1       1.0  1.00000  1.00000  0.00000  1.0000
  C   C3        1.0  0.14180  0.25950  0.77800  1.0000
  C   C4        1.0  0.85820  0.74050  0.22200  1.0000
  H   H3        1.0  0.19220  0.34810  0.70640  1.0000
  H   H4        1.0  0.80780  0.65190  0.29360  1.0000
  O   O3        1.0  0.38360  0.65870  0.88670  1.0000
  O   O4        1.0  0.61640  0.34130  0.11330  1.0000
  C   C5        1.0  0.30470  0.76790  0.94860  1.0000
  C   C6        1.0  0.69530  0.23210  0.05140  1.0000
  H   H5        1.0  0.29980  0.77740  0.06300  1.0000
  H   H6        1.0  0.70020  0.22260  0.93700  1.0000
  O   O5        1.0  0.80980  0.56200  0.57260  1.0000
  O   O6        1.0  0.19020  0.43800  0.42740  1.0000
  O   O7        1.0  0.23280  0.86420  0.87460  1.0000
  O   O8        1.0  0.76720  0.13580  0.12540  1.0000
  O   O9        1.0  0.24010  0.28690  0.92070  1.0000
  O   O10       1.0  0.75990  0.71310  0.07930  1.0000
  O   O11       1.0  0.98410  0.12270  0.72920  1.0000
  O   O12       1.0  0.01590  0.87730  0.27080  1.0000
