data_image0
_chemical_formula_structural       CrNaO2C2H2O2C2H2C2H2O8
_chemical_formula_sum              "Cr1 Na1 O12 C6 H6"
_cell_length_a       6.5241
_cell_length_b       7.9763
_cell_length_c       8.1125
_cell_angle_alpha    94.92
_cell_angle_beta     91.468
_cell_angle_gamma    110.83

_space_group_name_H-M_alt    "P 1"
_space_group_IT_number       1

loop_
  _space_group_symop_operation_xyz
  'x, y, z'

loop_
  _atom_site_type_symbol
  _atom_site_label
  _atom_site_symmetry_multiplicity
  _atom_site_fract_x
  _atom_site_fract_y
  _atom_site_fract_z
  _atom_site_occupancy
  Cr  Cr1       1.0  0.50000  0.50000  0.50000  1.0000
  Na  Na1       1.0  0.00000  0.00000  0.50000  1.0000
  O   O1        1.0  0.36040  0.53750  0.70550  1.0000
  O   O2        1.0  0.63960  0.46250  0.29450  1.0000
  C   C1        1.0  0.26270  0.41150  0.79620  1.0000
  C   C2        1.0  0.73730  0.58850  0.20380  1.0000
  H   H1        1.0  0.24700  0.29410  0.75750  1.0000
  H   H2        1.0  0.75300  0.70590  0.24250  1.0000
  O   O3        1.0  0.18900  0.43480  0.92970  1.0000
  O   O4        1.0  0.81100  0.56520  0.07030  1.0000
  C   C3        1.0  0.30580  0.77170  0.45000  1.0000
  C   C4        1.0  0.69420  0.22830  0.55000  1.0000
  H   H3        1.0  0.30550  0.78450  0.56510  1.0000
  H   H4        1.0  0.69450  0.21550  0.43490  1.0000
  C   C5        1.0  0.85850  0.74120  0.72190  1.0000
  C   C6        1.0  0.14150  0.25880  0.27810  1.0000
  H   H5        1.0  0.80640  0.65290  0.79400  1.0000
  H   H6        1.0  0.19360  0.34710  0.20600  1.0000
  O   O5        1.0  0.38040  0.65670  0.38390  1.0000
  O   O6        1.0  0.61960  0.34330  0.61610  1.0000
  O   O7        1.0  0.23420  0.86690  0.37340  1.0000
  O   O8        1.0  0.76580  0.13310  0.62660  1.0000
  O   O9        1.0  0.01830  0.87790  0.77000  1.0000
  O   O10       1.0  0.98170  0.12210  0.23000  1.0000
  O   O11       1.0  0.76040  0.71470  0.57700  1.0000
  O   O12       1.0  0.23960  0.28530  0.42300  1.0000
