data_image0
_chemical_formula_structural       P8Na6O8C8H2C2H2C2H2C2H2C2H2C4H2C2H2C2H2C2H2C2H2C4H2C2H2C2H2C2H2C2H2C4H2C2H2C2H2C2H2C2H2C8H2C2H2C2H2C2H2C2H2C4H2C2H2C2H2C2H2C2H2C4H2C2H2C2H2C2H2C2H2C4H2C2H2C2H2C2H2C2H2C2H6C2H4C2H4C2H6C2H6C2H4C2H4C2H6
_chemical_formula_sum              "P8 Na6 O8 C120 H120"
_cell_length_a       15.366
_cell_length_b       16.723
_cell_length_c       17.533
_cell_angle_alpha    93.82
_cell_angle_beta     104.52
_cell_angle_gamma    112.25

_space_group_name_H-M_alt    "P 1"
_space_group_IT_number       1

loop_
  _space_group_symop_operation_xyz
  'x, y, z'

loop_
  _atom_site_type_symbol
  _atom_site_label
  _atom_site_symmetry_multiplicity
  _atom_site_fract_x
  _atom_site_fract_y
  _atom_site_fract_z
  _atom_site_occupancy
  P   P1        1.0  0.32459  0.95420  0.47833  1.0000
  P   P2        1.0  0.67541  0.04580  0.52167  1.0000
  P   P3        1.0  0.31146  0.80246  0.35807  1.0000
  P   P4        1.0  0.68854  0.19754  0.64193  1.0000
  P   P5        1.0  0.19581  0.69201  0.63290  1.0000
  P   P6        1.0  0.80419  0.30799  0.36710  1.0000
  P   P7        1.0  0.17399  0.54005  0.50912  1.0000
  P   P8        1.0  0.82601  0.45995  0.49088  1.0000
  Na  Na1       1.0  0.51180  0.10988  0.50820  1.0000
  Na  Na2       1.0  0.48820  0.89012  0.49180  1.0000
  Na  Na3       1.0  0.25025  0.74911  0.49492  1.0000
  Na  Na4       1.0  0.74975  0.25089  0.50508  1.0000
  Na  Na5       1.0  0.01288  0.60994  0.50703  1.0000
  Na  Na6       1.0  0.98712  0.39006  0.49297  1.0000
  O   O1        1.0  0.47241  0.23430  0.48705  1.0000
  O   O2        1.0  0.52759  0.76570  0.51295  1.0000
  O   O3        1.0  0.56818  0.17265  0.40306  1.0000
  O   O4        1.0  0.43182  0.82735  0.59694  1.0000
  O   O5        1.0  0.97489  0.73602  0.49078  1.0000
  O   O6        1.0  0.02511  0.26398  0.50922  1.0000
  O   O7        1.0  0.06900  0.67667  0.40215  1.0000
  O   O8        1.0  0.93100  0.32333  0.59785  1.0000
  C   C1        1.0  0.26120  0.94330  0.37250  1.0000
  C   C2        1.0  0.73880  0.05670  0.62750  1.0000
  C   C3        1.0  0.26470  0.88080  0.31850  1.0000
  C   C4        1.0  0.73530  0.11920  0.68150  1.0000
  C   C5        1.0  0.28120  0.01500  0.53950  1.0000
  C   C6        1.0  0.71880  0.98500  0.46050  1.0000
  C   C7        1.0  0.34720  0.06220  0.61500  1.0000
  C   C8        1.0  0.65280  0.93780  0.38500  1.0000
  H   H1        1.0  0.41290  0.06680  0.62820  1.0000
  H   H2        1.0  0.58710  0.93320  0.37180  1.0000
  C   C9        1.0  0.31940  0.10190  0.67040  1.0000
  C   C10       1.0  0.68060  0.89810  0.32960  1.0000
  H   H3        1.0  0.36570  0.13250  0.72100  1.0000
  H   H4        1.0  0.63430  0.86750  0.27900  1.0000
  C   C11       1.0  0.22450  0.09760  0.65280  1.0000
  C   C12       1.0  0.77550  0.90240  0.34720  1.0000
  H   H5        1.0  0.20520  0.12460  0.69100  1.0000
  H   H6        1.0  0.79480  0.87540  0.30900  1.0000
  C   C13       1.0  0.15820  0.05310  0.57860  1.0000
  C   C14       1.0  0.84180  0.94690  0.42140  1.0000
  H   H7        1.0  0.09300  0.04990  0.56580  1.0000
  H   H8        1.0  0.90700  0.95010  0.43420  1.0000
  C   C15       1.0  0.18570  0.01360  0.52310  1.0000
  C   C16       1.0  0.81430  0.98640  0.47690  1.0000
  H   H9        1.0  0.13900  0.98440  0.47220  1.0000
  H   H10       1.0  0.86100  0.01560  0.52780  1.0000
  C   C17       1.0  0.20750  0.99910  0.34750  1.0000
  C   C18       1.0  0.79250  0.00090  0.65250  1.0000
  C   C19       1.0  0.10890  0.96280  0.29960  1.0000
  C   C20       1.0  0.89110  0.03720  0.70040  1.0000
  H   H11       1.0  0.07660  0.90150  0.27920  1.0000
  H   H12       1.0  0.92340  0.09850  0.72080  1.0000
  C   C21       1.0  0.05800  0.01550  0.28160  1.0000
  C   C22       1.0  0.94200  0.98450  0.71840  1.0000
  H   H13       1.0  0.99110  0.98960  0.24950  1.0000
  H   H14       1.0  0.00890  0.01040  0.75050  1.0000
  C   C23       1.0  0.10300  0.10500  0.30960  1.0000
  C   C24       1.0  0.89700  0.89500  0.69040  1.0000
  H   H15       1.0  0.06750  0.14060  0.29720  1.0000
  H   H16       1.0  0.93250  0.85940  0.70280  1.0000
  C   C25       1.0  0.20070  0.14190  0.35610  1.0000
  C   C26       1.0  0.79930  0.85810  0.64390  1.0000
  H   H17       1.0  0.23280  0.20350  0.37510  1.0000
  H   H18       1.0  0.76720  0.79650  0.62490  1.0000
  C   C27       1.0  0.25190  0.09020  0.37520  1.0000
  C   C28       1.0  0.74810  0.90980  0.62480  1.0000
  H   H19       1.0  0.31860  0.11670  0.40780  1.0000
  H   H20       1.0  0.68140  0.88330  0.59220  1.0000
  C   C29       1.0  0.23320  0.87860  0.23080  1.0000
  C   C30       1.0  0.76680  0.12140  0.76920  1.0000
  C   C31       1.0  0.26940  0.95500  0.19890  1.0000
  C   C32       1.0  0.73060  0.04500  0.80110  1.0000
  H   H21       1.0  0.31010  0.00930  0.23440  1.0000
  H   H22       1.0  0.68990  0.99070  0.76560  1.0000
  C   C33       1.0  0.24740  0.95330  0.11660  1.0000
  C   C34       1.0  0.75260  0.04670  0.88340  1.0000
  H   H23       1.0  0.27190  0.00620  0.09660  1.0000
  H   H24       1.0  0.72810  0.99380  0.90340  1.0000
  C   C35       1.0  0.18970  0.87480  0.06410  1.0000
  C   C36       1.0  0.81030  0.12520  0.93590  1.0000
  H   H25       1.0  0.17570  0.87310  0.00790  1.0000
  H   H26       1.0  0.82430  0.12690  0.99210  1.0000
  C   C37       1.0  0.15250  0.79830  0.09400  1.0000
  C   C38       1.0  0.84750  0.20170  0.90600  1.0000
  H   H27       1.0  0.11200  0.74420  0.05820  1.0000
  H   H28       1.0  0.88800  0.25580  0.94180  1.0000
  C   C39       1.0  0.17430  0.80060  0.17640  1.0000
  C   C40       1.0  0.82570  0.19940  0.82360  1.0000
  H   H29       1.0  0.14830  0.74760  0.19590  1.0000
  H   H30       1.0  0.85170  0.25240  0.80410  1.0000
  C   C41       1.0  0.33930  0.74740  0.28060  1.0000
  C   C42       1.0  0.66070  0.25260  0.71940  1.0000
  C   C43       1.0  0.37680  0.78330  0.22010  1.0000
  C   C44       1.0  0.62320  0.21670  0.77990  1.0000
  H   H31       1.0  0.38560  0.84180  0.21460  1.0000
  H   H32       1.0  0.61440  0.15820  0.78540  1.0000
  C   C45       1.0  0.40180  0.73580  0.16770  1.0000
  C   C46       1.0  0.59820  0.26420  0.83230  1.0000
  H   H33       1.0  0.42560  0.76170  0.12640  1.0000
  H   H34       1.0  0.57440  0.23830  0.87360  1.0000
  C   C47       1.0  0.39260  0.65230  0.17470  1.0000
  C   C48       1.0  0.60740  0.34770  0.82530  1.0000
  H   H35       1.0  0.41080  0.62070  0.13920  1.0000
  H   H36       1.0  0.58920  0.37930  0.86080  1.0000
  C   C49       1.0  0.35630  0.61480  0.23420  1.0000
  C   C50       1.0  0.64370  0.38520  0.76580  1.0000
  H   H37       1.0  0.35000  0.55690  0.24010  1.0000
  H   H38       1.0  0.65000  0.44310  0.75990  1.0000
  C   C51       1.0  0.32930  0.66110  0.28540  1.0000
  C   C52       1.0  0.67070  0.33890  0.71460  1.0000
  H   H39       1.0  0.30300  0.63350  0.32510  1.0000
  H   H40       1.0  0.69700  0.36650  0.67490  1.0000
  C   C53       1.0  0.24440  0.61370  0.66980  1.0000
  C   C54       1.0  0.75560  0.38630  0.33020  1.0000
  C   C55       1.0  0.24340  0.55100  0.61290  1.0000
  C   C56       1.0  0.75660  0.44900  0.38710  1.0000
  C   C57       1.0  0.16270  0.73960  0.71070  1.0000
  C   C58       1.0  0.83730  0.26040  0.28930  1.0000
  C   C59       1.0  0.15760  0.82150  0.70310  1.0000
  C   C60       1.0  0.84240  0.17850  0.29690  1.0000
  H   H41       1.0  0.17800  0.85040  0.66180  1.0000
  H   H42       1.0  0.82200  0.14960  0.33820  1.0000
  C   C61       1.0  0.12400  0.86070  0.75390  1.0000
  C   C62       1.0  0.87600  0.13930  0.24610  1.0000
  H   H43       1.0  0.12050  0.91520  0.74650  1.0000
  H   H44       1.0  0.87950  0.08480  0.25350  1.0000
  C   C63       1.0  0.09550  0.82120  0.81550  1.0000
  C   C64       1.0  0.90450  0.17880  0.18450  1.0000
  H   H45       1.0  0.07160  0.84800  0.85000  1.0000
  H   H46       1.0  0.92840  0.15200  0.15000  1.0000
  C   C65       1.0  0.10200  0.74270  0.82630  1.0000
  C   C66       1.0  0.89800  0.25730  0.17370  1.0000
  H   H47       1.0  0.08440  0.71610  0.86950  1.0000
  H   H48       1.0  0.91560  0.28390  0.13050  1.0000
  C   C67       1.0  0.13400  0.70210  0.77430  1.0000
  C   C68       1.0  0.86600  0.29790  0.22570  1.0000
  H   H49       1.0  0.13660  0.64730  0.78220  1.0000
  H   H50       1.0  0.86340  0.35270  0.21780  1.0000
  C   C69       1.0  0.28600  0.61900  0.75670  1.0000
  C   C70       1.0  0.71400  0.38100  0.24330  1.0000
  C   C71       1.0  0.34490  0.69980  0.80810  1.0000
  C   C72       1.0  0.65510  0.30020  0.19190  1.0000
  H   H51       1.0  0.36050  0.75220  0.78620  1.0000
  H   H52       1.0  0.63950  0.24780  0.21380  1.0000
  C   C73       1.0  0.38110  0.70570  0.89000  1.0000
  C   C74       1.0  0.61890  0.29430  0.11000  1.0000
  H   H53       1.0  0.42060  0.76160  0.92330  1.0000
  H   H54       1.0  0.57940  0.23840  0.07670  1.0000
  C   C75       1.0  0.36020  0.63090  0.92320  1.0000
  C   C76       1.0  0.63980  0.36910  0.07680  1.0000
  H   H55       1.0  0.38540  0.63470  0.97930  1.0000
  H   H56       1.0  0.61460  0.36530  0.02070  1.0000
  C   C77       1.0  0.30210  0.55020  0.87400  1.0000
  C   C78       1.0  0.69790  0.44980  0.12600  1.0000
  H   H57       1.0  0.28760  0.49820  0.89640  1.0000
  H   H58       1.0  0.71240  0.50180  0.10360  1.0000
  C   C79       1.0  0.26490  0.54440  0.79240  1.0000
  C   C80       1.0  0.73510  0.45560  0.20760  1.0000
  H   H59       1.0  0.22400  0.48840  0.75980  1.0000
  H   H60       1.0  0.77600  0.51160  0.24020  1.0000
  C   C81       1.0  0.29670  0.49420  0.63567  1.0000
  C   C82       1.0  0.70330  0.50580  0.36433  1.0000
  C   C83       1.0  0.39680  0.52850  0.67730  1.0000
  C   C84       1.0  0.60320  0.47150  0.32270  1.0000
  H   H61       1.0  0.43280  0.59040  0.69150  1.0000
  H   H62       1.0  0.56720  0.40960  0.30850  1.0000
  C   C85       1.0  0.44510  0.47460  0.69860  1.0000
  C   C86       1.0  0.55490  0.52540  0.30140  1.0000
  H   H63       1.0  0.51360  0.49990  0.72630  1.0000
  H   H64       1.0  0.48640  0.50010  0.27370  1.0000
  C   C87       1.0  0.39460  0.38450  0.67990  1.0000
  C   C88       1.0  0.60540  0.61550  0.32010  1.0000
  H   H65       1.0  0.42720  0.34760  0.69660  1.0000
  H   H66       1.0  0.57280  0.65240  0.30340  1.0000
  C   C89       1.0  0.29600  0.34860  0.63660  1.0000
  C   C90       1.0  0.70400  0.65140  0.36340  1.0000
  H   H67       1.0  0.26080  0.28670  0.62210  1.0000
  H   H68       1.0  0.73920  0.71330  0.37790  1.0000
  C   C91       1.0  0.24830  0.40250  0.61420  1.0000
  C   C92       1.0  0.75170  0.59750  0.38580  1.0000
  H   H69       1.0  0.18080  0.37670  0.58330  1.0000
  H   H70       1.0  0.81920  0.62330  0.41670  1.0000
  C   C93       1.0  0.21350  0.47830  0.44490  1.0000
  C   C94       1.0  0.78650  0.52170  0.55510  1.0000
  C   C95       1.0  0.30850  0.48100  0.45770  1.0000
  C   C96       1.0  0.69150  0.51900  0.54230  1.0000
  H   H71       1.0  0.35750  0.51180  0.50710  1.0000
  H   H72       1.0  0.64250  0.48820  0.49290  1.0000
  C   C97       1.0  0.33260  0.43970  0.39980  1.0000
  C   C98       1.0  0.66740  0.56030  0.60020  1.0000
  H   H73       1.0  0.39770  0.44320  0.40990  1.0000
  H   H74       1.0  0.60230  0.55680  0.59010  1.0000
  C   C99       1.0  0.26260  0.39350  0.32770  1.0000
  C   C100      1.0  0.73740  0.60650  0.67230  1.0000
  H   H75       1.0  0.27910  0.36540  0.28810  1.0000
  H   H76       1.0  0.72090  0.63460  0.71190  1.0000
  C   C101      1.0  0.16790  0.38900  0.31410  1.0000
  C   C102      1.0  0.83210  0.61100  0.68590  1.0000
  H   H77       1.0  0.11910  0.35750  0.26480  1.0000
  H   H78       1.0  0.88090  0.64250  0.73520  1.0000
  C   C103      1.0  0.14400  0.42950  0.37120  1.0000
  C   C104      1.0  0.85600  0.57050  0.62880  1.0000
  H   H79       1.0  0.07820  0.42450  0.36070  1.0000
  H   H80       1.0  0.92180  0.57550  0.63930  1.0000
  C   C105      1.0  0.44790  0.28150  0.54280  1.0000
  C   C106      1.0  0.55210  0.71850  0.45720  1.0000
  H   H81       1.0  0.50840  0.32630  0.58050  1.0000
  H   H82       1.0  0.49160  0.67370  0.41950  1.0000
  H   H83       1.0  0.41060  0.24080  0.57240  1.0000
  H   H84       1.0  0.58940  0.75920  0.42760  1.0000
  H   H85       1.0  0.40780  0.31000  0.51400  1.0000
  H   H86       1.0  0.59220  0.69000  0.48600  1.0000
  C   C107      1.0  0.52940  0.28940  0.44390  1.0000
  C   C108      1.0  0.47060  0.71060  0.55610  1.0000
  H   H87       1.0  0.59760  0.32360  0.47900  1.0000
  H   H88       1.0  0.40240  0.67640  0.52100  1.0000
  H   H89       1.0  0.50080  0.33110  0.42490  1.0000
  H   H90       1.0  0.49920  0.66890  0.57510  1.0000
  C   C109      1.0  0.53010  0.23380  0.37440  1.0000
  C   C110      1.0  0.46990  0.76620  0.62560  1.0000
  H   H91       1.0  0.46230  0.20220  0.33770  1.0000
  H   H92       1.0  0.53770  0.79780  0.66230  1.0000
  H   H93       1.0  0.57160  0.27110  0.34460  1.0000
  H   H94       1.0  0.42840  0.72890  0.65540  1.0000
  C   C111      1.0  0.56470  0.11310  0.33820  1.0000
  C   C112      1.0  0.43530  0.88690  0.66180  1.0000
  H   H95       1.0  0.49590  0.07720  0.30740  1.0000
  H   H96       1.0  0.50410  0.92280  0.69260  1.0000
  H   H97       1.0  0.59620  0.07490  0.35980  1.0000
  H   H98       1.0  0.40380  0.92510  0.64020  1.0000
  H   H99       1.0  0.59960  0.14660  0.30330  1.0000
  H   H100      1.0  0.40040  0.85340  0.69670  1.0000
  C   C113      1.0  0.94210  0.77970  0.54260  1.0000
  C   C114      1.0  0.05790  0.22030  0.45740  1.0000
  H   H101      1.0  0.99900  0.82860  0.57990  1.0000
  H   H102      1.0  0.00100  0.17140  0.42010  1.0000
  H   H103      1.0  0.90740  0.73820  0.57300  1.0000
  H   H104      1.0  0.09260  0.26180  0.42700  1.0000
  H   H105      1.0  0.89740  0.80230  0.51070  1.0000
  H   H106      1.0  0.10260  0.19770  0.48930  1.0000
  C   C115      1.0  0.03280  0.79310  0.44910  1.0000
  C   C116      1.0  0.96720  0.20690  0.55090  1.0000
  H   H107      1.0  0.10120  0.82540  0.48450  1.0000
  H   H108      1.0  0.89880  0.17460  0.51550  1.0000
  H   H109      1.0  0.00560  0.83650  0.43280  1.0000
  H   H110      1.0  0.99440  0.16350  0.56720  1.0000
  C   C117      1.0  0.03190  0.74020  0.37750  1.0000
  C   C118      1.0  0.96810  0.25980  0.62250  1.0000
  H   H111      1.0  0.96380  0.71020  0.34090  1.0000
  H   H112      1.0  0.03620  0.28980  0.65910  1.0000
  H   H113      1.0  0.07340  0.77890  0.34840  1.0000
  H   H114      1.0  0.92660  0.22110  0.65160  1.0000
  C   C119      1.0  0.05940  0.61750  0.33450  1.0000
  C   C120      1.0  0.94060  0.38250  0.66550  1.0000
  H   H115      1.0  0.98950  0.58370  0.30560  1.0000
  H   H116      1.0  0.01050  0.41630  0.69440  1.0000
  H   H117      1.0  0.08960  0.57740  0.35290  1.0000
  H   H118      1.0  0.91040  0.42260  0.64710  1.0000
  H   H119      1.0  0.09260  0.65110  0.29870  1.0000
  H   H120      1.0  0.90740  0.34890  0.70130  1.0000
