data_image0
_chemical_formula_structural       Eu12C16H8C16H8C24H8C8H8C16H8C40H8C8H8C16H8C40H8C8H8C16H8C24N8O96
_chemical_formula_sum              "Eu12 C232 H88 N8 O96"
_cell_length_a       18.9221
_cell_length_b       23.2834
_cell_length_c       21.435
_cell_angle_alpha    90
_cell_angle_beta     101.931
_cell_angle_gamma    90

_space_group_name_H-M_alt    "P 1"
_space_group_IT_number       1

loop_
  _space_group_symop_operation_xyz
  'x, y, z'

loop_
  _atom_site_type_symbol
  _atom_site_label
  _atom_site_symmetry_multiplicity
  _atom_site_fract_x
  _atom_site_fract_y
  _atom_site_fract_z
  _atom_site_occupancy
  Eu  Eu1       1.0  0.41447  0.50214  0.04150  1.0000
  Eu  Eu2       1.0  0.58553  0.50214  0.45850  1.0000
  Eu  Eu3       1.0  0.91447  0.00214  0.04150  1.0000
  Eu  Eu4       1.0  0.08553  0.00214  0.45850  1.0000
  Eu  Eu5       1.0  0.58553  0.49786  0.95850  1.0000
  Eu  Eu6       1.0  0.41447  0.49786  0.54150  1.0000
  Eu  Eu7       1.0  0.08553  0.99786  0.95850  1.0000
  Eu  Eu8       1.0  0.91447  0.99786  0.54150  1.0000
  Eu  Eu9       1.0  1.00000  0.35147  0.25000  1.0000
  Eu  Eu10      1.0  0.50000  0.85147  0.25000  1.0000
  Eu  Eu11      1.0  0.00000  0.64853  0.75000  1.0000
  Eu  Eu12      1.0  0.50000  0.14853  0.75000  1.0000
  C   C1        1.0  0.16370  0.41510  0.04600  1.0000
  C   C2        1.0  0.83630  0.41510  0.45400  1.0000
  C   C3        1.0  0.66370  0.91510  0.04600  1.0000
  C   C4        1.0  0.33630  0.91510  0.45400  1.0000
  C   C5        1.0  0.83630  0.58490  0.95400  1.0000
  C   C6        1.0  0.16370  0.58490  0.54600  1.0000
  C   C7        1.0  0.33630  0.08490  0.95400  1.0000
  C   C8        1.0  0.66370  0.08490  0.54600  1.0000
  C   C9        1.0  0.13620  0.36120  0.04150  1.0000
  C   C10       1.0  0.86380  0.36120  0.45850  1.0000
  C   C11       1.0  0.63620  0.86120  0.04150  1.0000
  C   C12       1.0  0.36380  0.86120  0.45850  1.0000
  C   C13       1.0  0.86380  0.63880  0.95850  1.0000
  C   C14       1.0  0.13620  0.63880  0.54150  1.0000
  C   C15       1.0  0.36380  0.13880  0.95850  1.0000
  C   C16       1.0  0.63620  0.13880  0.54150  1.0000
  H   H1        1.0  0.10244  0.35050  0.00541  1.0000
  H   H2        1.0  0.89756  0.35050  0.49459  1.0000
  H   H3        1.0  0.60244  0.85050  0.00541  1.0000
  H   H4        1.0  0.39756  0.85050  0.49459  1.0000
  H   H5        1.0  0.89756  0.64950  0.99459  1.0000
  H   H6        1.0  0.10244  0.64950  0.50541  1.0000
  H   H7        1.0  0.39756  0.14950  0.99459  1.0000
  H   H8        1.0  0.60244  0.14950  0.50541  1.0000
  C   C17       1.0  0.15740  0.32300  0.08890  1.0000
  C   C18       1.0  0.84260  0.32300  0.41110  1.0000
  C   C19       1.0  0.65740  0.82300  0.08890  1.0000
  C   C20       1.0  0.34260  0.82300  0.41110  1.0000
  C   C21       1.0  0.84260  0.67700  0.91110  1.0000
  C   C22       1.0  0.15740  0.67700  0.58890  1.0000
  C   C23       1.0  0.34260  0.17700  0.91110  1.0000
  C   C24       1.0  0.65740  0.17700  0.58890  1.0000
  C   C25       1.0  0.20700  0.33810  0.14270  1.0000
  C   C26       1.0  0.79300  0.33810  0.35730  1.0000
  C   C27       1.0  0.70700  0.83810  0.14270  1.0000
  C   C28       1.0  0.29300  0.83810  0.35730  1.0000
  C   C29       1.0  0.79300  0.66190  0.85730  1.0000
  C   C30       1.0  0.20700  0.66190  0.64270  1.0000
  C   C31       1.0  0.29300  0.16190  0.85730  1.0000
  C   C32       1.0  0.70700  0.16190  0.64270  1.0000
  H   H9        1.0  0.22159  0.31155  0.17522  1.0000
  H   H10       1.0  0.77841  0.31155  0.32478  1.0000
  H   H11       1.0  0.72159  0.81155  0.17522  1.0000
  H   H12       1.0  0.27841  0.81155  0.32478  1.0000
  H   H13       1.0  0.77841  0.68845  0.82478  1.0000
  H   H14       1.0  0.22159  0.68845  0.67522  1.0000
  H   H15       1.0  0.27841  0.18845  0.82478  1.0000
  H   H16       1.0  0.72159  0.18845  0.67522  1.0000
  C   C33       1.0  0.23470  0.39220  0.14810  1.0000
  C   C34       1.0  0.76530  0.39220  0.35190  1.0000
  C   C35       1.0  0.73470  0.89220  0.14810  1.0000
  C   C36       1.0  0.26530  0.89220  0.35190  1.0000
  C   C37       1.0  0.76530  0.60780  0.85190  1.0000
  C   C38       1.0  0.23470  0.60780  0.64810  1.0000
  C   C39       1.0  0.26530  0.10780  0.85190  1.0000
  C   C40       1.0  0.73470  0.10780  0.64810  1.0000
  C   C41       1.0  0.28330  0.40900  0.20860  1.0000
  C   C42       1.0  0.71670  0.40900  0.29140  1.0000
  C   C43       1.0  0.78330  0.90900  0.20860  1.0000
  C   C44       1.0  0.21670  0.90900  0.29140  1.0000
  C   C45       1.0  0.71670  0.59100  0.79140  1.0000
  C   C46       1.0  0.28330  0.59100  0.70860  1.0000
  C   C47       1.0  0.21670  0.09100  0.79140  1.0000
  C   C48       1.0  0.78330  0.09100  0.70860  1.0000
  C   C49       1.0  0.26380  0.39520  0.26650  1.0000
  C   C50       1.0  0.73620  0.39520  0.23350  1.0000
  C   C51       1.0  0.76380  0.89520  0.26650  1.0000
  C   C52       1.0  0.23620  0.89520  0.23350  1.0000
  C   C53       1.0  0.73620  0.60480  0.73350  1.0000
  C   C54       1.0  0.26380  0.60480  0.76650  1.0000
  C   C55       1.0  0.23620  0.10480  0.73350  1.0000
  C   C56       1.0  0.76380  0.10480  0.76650  1.0000
  H   H17       1.0  0.22160  0.37449  0.26583  1.0000
  H   H18       1.0  0.77840  0.37449  0.23417  1.0000
  H   H19       1.0  0.72160  0.87449  0.26583  1.0000
  H   H20       1.0  0.27840  0.87449  0.23417  1.0000
  H   H21       1.0  0.77840  0.62551  0.73417  1.0000
  H   H22       1.0  0.22160  0.62551  0.76583  1.0000
  H   H23       1.0  0.27840  0.12551  0.73417  1.0000
  H   H24       1.0  0.72160  0.12551  0.76583  1.0000
  C   C57       1.0  0.30490  0.41140  0.32390  1.0000
  C   C58       1.0  0.69510  0.41140  0.17610  1.0000
  C   C59       1.0  0.80490  0.91140  0.32390  1.0000
  C   C60       1.0  0.19510  0.91140  0.17610  1.0000
  C   C61       1.0  0.69510  0.58860  0.67610  1.0000
  C   C62       1.0  0.30490  0.58860  0.82390  1.0000
  C   C63       1.0  0.19510  0.08860  0.67610  1.0000
  C   C64       1.0  0.80490  0.08860  0.82390  1.0000
  H   H25       1.0  0.29039  0.40186  0.36146  1.0000
  H   H26       1.0  0.70961  0.40186  0.13854  1.0000
  H   H27       1.0  0.79039  0.90186  0.36146  1.0000
  H   H28       1.0  0.20961  0.90186  0.13854  1.0000
  H   H29       1.0  0.70961  0.59814  0.63854  1.0000
  H   H30       1.0  0.29039  0.59814  0.86146  1.0000
  H   H31       1.0  0.20961  0.09814  0.63854  1.0000
  H   H32       1.0  0.79039  0.09814  0.86146  1.0000
  C   C65       1.0  0.36820  0.44210  0.32630  1.0000
  C   C66       1.0  0.63180  0.44210  0.17370  1.0000
  C   C67       1.0  0.86820  0.94210  0.32630  1.0000
  C   C68       1.0  0.13180  0.94210  0.17370  1.0000
  C   C69       1.0  0.63180  0.55790  0.67370  1.0000
  C   C70       1.0  0.36820  0.55790  0.82630  1.0000
  C   C71       1.0  0.13180  0.05790  0.67370  1.0000
  C   C72       1.0  0.86820  0.05790  0.82630  1.0000
  C   C73       1.0  0.38880  0.45690  0.27080  1.0000
  C   C74       1.0  0.61120  0.45690  0.22920  1.0000
  C   C75       1.0  0.88880  0.95690  0.27080  1.0000
  C   C76       1.0  0.11120  0.95690  0.22920  1.0000
  C   C77       1.0  0.61120  0.54310  0.72920  1.0000
  C   C78       1.0  0.38880  0.54310  0.77080  1.0000
  C   C79       1.0  0.11120  0.04310  0.72920  1.0000
  C   C80       1.0  0.88880  0.04310  0.77080  1.0000
  H   H33       1.0  0.43115  0.47766  0.27250  1.0000
  H   H34       1.0  0.56885  0.47766  0.22750  1.0000
  H   H35       1.0  0.93115  0.97766  0.27250  1.0000
  H   H36       1.0  0.06885  0.97766  0.22750  1.0000
  H   H37       1.0  0.56885  0.52234  0.72750  1.0000
  H   H38       1.0  0.43115  0.52234  0.77250  1.0000
  H   H39       1.0  0.06885  0.02234  0.72750  1.0000
  H   H40       1.0  0.93115  0.02234  0.77250  1.0000
  C   C81       1.0  0.34690  0.44110  0.21150  1.0000
  C   C82       1.0  0.65310  0.44110  0.28850  1.0000
  C   C83       1.0  0.84690  0.94110  0.21150  1.0000
  C   C84       1.0  0.15310  0.94110  0.28850  1.0000
  C   C85       1.0  0.65310  0.55890  0.78850  1.0000
  C   C86       1.0  0.34690  0.55890  0.71150  1.0000
  C   C87       1.0  0.15310  0.05890  0.78850  1.0000
  C   C88       1.0  0.84690  0.05890  0.71150  1.0000
  C   C89       1.0  0.37270  0.45950  0.15260  1.0000
  C   C90       1.0  0.62730  0.45950  0.34740  1.0000
  C   C91       1.0  0.87270  0.95950  0.15260  1.0000
  C   C92       1.0  0.12730  0.95950  0.34740  1.0000
  C   C93       1.0  0.62730  0.54050  0.84740  1.0000
  C   C94       1.0  0.37270  0.54050  0.65260  1.0000
  C   C95       1.0  0.12730  0.04050  0.84740  1.0000
  C   C96       1.0  0.87270  0.04050  0.65260  1.0000
  C   C97       1.0  0.41420  0.46050  0.38950  1.0000
  C   C98       1.0  0.58580  0.46050  0.11050  1.0000
  C   C99       1.0  0.91420  0.96050  0.38950  1.0000
  C   C100      1.0  0.08580  0.96050  0.11050  1.0000
  C   C101      1.0  0.58580  0.53950  0.61050  1.0000
  C   C102      1.0  0.41420  0.53950  0.88950  1.0000
  C   C103      1.0  0.08580  0.03950  0.61050  1.0000
  C   C104      1.0  0.91420  0.03950  0.88950  1.0000
  C   C105      1.0  0.12370  0.26460  0.08270  1.0000
  C   C106      1.0  0.87630  0.26460  0.41730  1.0000
  C   C107      1.0  0.62370  0.76460  0.08270  1.0000
  C   C108      1.0  0.37630  0.76460  0.41730  1.0000
  C   C109      1.0  0.87630  0.73540  0.91730  1.0000
  C   C110      1.0  0.12370  0.73540  0.58270  1.0000
  C   C111      1.0  0.37630  0.23540  0.91730  1.0000
  C   C112      1.0  0.62370  0.23540  0.58270  1.0000
  C   C113      1.0  0.13860  0.22740  0.03790  1.0000
  C   C114      1.0  0.86140  0.22740  0.46210  1.0000
  C   C115      1.0  0.63860  0.72740  0.03790  1.0000
  C   C116      1.0  0.36140  0.72740  0.46210  1.0000
  C   C117      1.0  0.86140  0.77260  0.96210  1.0000
  C   C118      1.0  0.13860  0.77260  0.53790  1.0000
  C   C119      1.0  0.36140  0.27260  0.96210  1.0000
  C   C120      1.0  0.63860  0.27260  0.53790  1.0000
  H   H41       1.0  0.17186  0.23832  0.01370  1.0000
  H   H42       1.0  0.82814  0.23832  0.48630  1.0000
  H   H43       1.0  0.67186  0.73832  0.01370  1.0000
  H   H44       1.0  0.32814  0.73832  0.48630  1.0000
  H   H45       1.0  0.82814  0.76168  0.98630  1.0000
  H   H46       1.0  0.17186  0.76168  0.51370  1.0000
  H   H47       1.0  0.32814  0.26168  0.98630  1.0000
  H   H48       1.0  0.67186  0.26168  0.51370  1.0000
  C   C121      1.0  0.10580  0.17330  0.02720  1.0000
  C   C122      1.0  0.89420  0.17330  0.47280  1.0000
  C   C123      1.0  0.60580  0.67330  0.02720  1.0000
  C   C124      1.0  0.39420  0.67330  0.47280  1.0000
  C   C125      1.0  0.89420  0.82670  0.97280  1.0000
  C   C126      1.0  0.10580  0.82670  0.52720  1.0000
  C   C127      1.0  0.39420  0.32670  0.97280  1.0000
  C   C128      1.0  0.60580  0.32670  0.52720  1.0000
  H   H49       1.0  0.11929  0.14785  0.99831  1.0000
  H   H50       1.0  0.88071  0.14785  0.50169  1.0000
  H   H51       1.0  0.61929  0.64785  0.99831  1.0000
  H   H52       1.0  0.38071  0.64785  0.50169  1.0000
  H   H53       1.0  0.88071  0.85215  0.00169  1.0000
  H   H54       1.0  0.11929  0.85215  0.49831  1.0000
  H   H55       1.0  0.38071  0.35215  0.00169  1.0000
  H   H56       1.0  0.61929  0.35215  0.49831  1.0000
  C   C129      1.0  0.05360  0.15870  0.05970  1.0000
  C   C130      1.0  0.94640  0.15870  0.44030  1.0000
  C   C131      1.0  0.55360  0.65870  0.05970  1.0000
  C   C132      1.0  0.44640  0.65870  0.44030  1.0000
  C   C133      1.0  0.94640  0.84130  0.94030  1.0000
  C   C134      1.0  0.05360  0.84130  0.55970  1.0000
  C   C135      1.0  0.44640  0.34130  0.94030  1.0000
  C   C136      1.0  0.55360  0.34130  0.55970  1.0000
  C   C137      1.0  0.03670  0.19610  0.10440  1.0000
  C   C138      1.0  0.96330  0.19610  0.39560  1.0000
  C   C139      1.0  0.53670  0.69610  0.10440  1.0000
  C   C140      1.0  0.46330  0.69610  0.39560  1.0000
  C   C141      1.0  0.96330  0.80390  0.89560  1.0000
  C   C142      1.0  0.03670  0.80390  0.60440  1.0000
  C   C143      1.0  0.46330  0.30390  0.89560  1.0000
  C   C144      1.0  0.53670  0.30390  0.60440  1.0000
  H   H57       1.0  0.00074  0.18617  0.12613  1.0000
  H   H58       1.0  0.99926  0.18617  0.37387  1.0000
  H   H59       1.0  0.50074  0.68617  0.12613  1.0000
  H   H60       1.0  0.49926  0.68617  0.37387  1.0000
  H   H61       1.0  0.99926  0.81383  0.87387  1.0000
  H   H62       1.0  0.00074  0.81383  0.62613  1.0000
  H   H63       1.0  0.49926  0.31383  0.87387  1.0000
  H   H64       1.0  0.50074  0.31383  0.62613  1.0000
  C   C145      1.0  0.07200  0.24810  0.11760  1.0000
  C   C146      1.0  0.92800  0.24810  0.38240  1.0000
  C   C147      1.0  0.57200  0.74810  0.11760  1.0000
  C   C148      1.0  0.42800  0.74810  0.38240  1.0000
  C   C149      1.0  0.92800  0.75190  0.88240  1.0000
  C   C150      1.0  0.07200  0.75190  0.61760  1.0000
  C   C151      1.0  0.42800  0.25190  0.88240  1.0000
  C   C152      1.0  0.57200  0.25190  0.61760  1.0000
  C   C153      1.0  0.04980  0.28490  0.16820  1.0000
  C   C154      1.0  0.95020  0.28490  0.33180  1.0000
  C   C155      1.0  0.54980  0.78490  0.16820  1.0000
  C   C156      1.0  0.45020  0.78490  0.33180  1.0000
  C   C157      1.0  0.95020  0.71510  0.83180  1.0000
  C   C158      1.0  0.04980  0.71510  0.66820  1.0000
  C   C159      1.0  0.45020  0.21510  0.83180  1.0000
  C   C160      1.0  0.54980  0.21510  0.66820  1.0000
  C   C161      1.0  0.01230  0.10380  0.04800  1.0000
  C   C162      1.0  0.98770  0.10380  0.45200  1.0000
  C   C163      1.0  0.51230  0.60380  0.04800  1.0000
  C   C164      1.0  0.48770  0.60380  0.45200  1.0000
  C   C165      1.0  0.98770  0.89620  0.95200  1.0000
  C   C166      1.0  0.01230  0.89620  0.54800  1.0000
  C   C167      1.0  0.48770  0.39620  0.95200  1.0000
  C   C168      1.0  0.51230  0.39620  0.54800  1.0000
  C   C169      1.0  0.13800  0.45640  0.99420  1.0000
  C   C170      1.0  0.86200  0.45640  0.50580  1.0000
  C   C171      1.0  0.63800  0.95640  0.99420  1.0000
  C   C172      1.0  0.36200  0.95640  0.50580  1.0000
  C   C173      1.0  0.86200  0.54360  0.00580  1.0000
  C   C174      1.0  0.13800  0.54360  0.49420  1.0000
  C   C175      1.0  0.36200  0.04360  0.00580  1.0000
  C   C176      1.0  0.63800  0.04360  0.49420  1.0000
  C   C177      1.0  0.06480  0.45820  0.96610  1.0000
  C   C178      1.0  0.93520  0.45820  0.53390  1.0000
  C   C179      1.0  0.56480  0.95820  0.96610  1.0000
  C   C180      1.0  0.43520  0.95820  0.53390  1.0000
  C   C181      1.0  0.93520  0.54180  0.03390  1.0000
  C   C182      1.0  0.06480  0.54180  0.46610  1.0000
  C   C183      1.0  0.43520  0.04180  0.03390  1.0000
  C   C184      1.0  0.56480  0.04180  0.46610  1.0000
  H   H65       1.0  0.03365  0.43299  0.98063  1.0000
  H   H66       1.0  0.96635  0.43299  0.51937  1.0000
  H   H67       1.0  0.53365  0.93299  0.98063  1.0000
  H   H68       1.0  0.46635  0.93299  0.51937  1.0000
  H   H69       1.0  0.96635  0.56701  0.01937  1.0000
  H   H70       1.0  0.03365  0.56701  0.48063  1.0000
  H   H71       1.0  0.46635  0.06701  0.01937  1.0000
  H   H72       1.0  0.53365  0.06701  0.48063  1.0000
  C   C185      1.0  0.03680  0.49530  0.91810  1.0000
  C   C186      1.0  0.96320  0.49530  0.58190  1.0000
  C   C187      1.0  0.53680  0.99530  0.91810  1.0000
  C   C188      1.0  0.46320  0.99530  0.58190  1.0000
  C   C189      1.0  0.96320  0.50470  0.08190  1.0000
  C   C190      1.0  0.03680  0.50470  0.41810  1.0000
  C   C191      1.0  0.46320  0.00470  0.08190  1.0000
  C   C192      1.0  0.53680  0.00470  0.41810  1.0000
  H   H73       1.0  0.98760  0.49482  0.90020  1.0000
  H   H74       1.0  0.01240  0.49482  0.59980  1.0000
  H   H75       1.0  0.48760  0.99482  0.90020  1.0000
  H   H76       1.0  0.51240  0.99482  0.59980  1.0000
  H   H77       1.0  0.01240  0.50518  0.09980  1.0000
  H   H78       1.0  0.98760  0.50518  0.40020  1.0000
  H   H79       1.0  0.51240  0.00518  0.09980  1.0000
  H   H80       1.0  0.48760  0.00518  0.40020  1.0000
  C   C193      1.0  0.08250  0.53410  0.89590  1.0000
  C   C194      1.0  0.91750  0.53410  0.60410  1.0000
  C   C195      1.0  0.58250  0.03410  0.89590  1.0000
  C   C196      1.0  0.41750  0.03410  0.60410  1.0000
  C   C197      1.0  0.91750  0.46590  0.10410  1.0000
  C   C198      1.0  0.08250  0.46590  0.39590  1.0000
  C   C199      1.0  0.41750  0.96590  0.10410  1.0000
  C   C200      1.0  0.58250  0.96590  0.39590  1.0000
  C   C201      1.0  0.15390  0.53380  0.92380  1.0000
  C   C202      1.0  0.84610  0.53380  0.57620  1.0000
  C   C203      1.0  0.65390  0.03380  0.92380  1.0000
  C   C204      1.0  0.34610  0.03380  0.57620  1.0000
  C   C205      1.0  0.84610  0.46620  0.07620  1.0000
  C   C206      1.0  0.15390  0.46620  0.42380  1.0000
  C   C207      1.0  0.34610  0.96620  0.07620  1.0000
  C   C208      1.0  0.65390  0.96620  0.42380  1.0000
  H   H81       1.0  0.18450  0.55981  0.90978  1.0000
  H   H82       1.0  0.81550  0.55981  0.59022  1.0000
  H   H83       1.0  0.68450  0.05981  0.90978  1.0000
  H   H84       1.0  0.31550  0.05981  0.59022  1.0000
  H   H85       1.0  0.81550  0.44019  0.09022  1.0000
  H   H86       1.0  0.18450  0.44019  0.40978  1.0000
  H   H87       1.0  0.31550  0.94019  0.09022  1.0000
  H   H88       1.0  0.68450  0.94019  0.40978  1.0000
  C   C209      1.0  0.18280  0.49580  0.97300  1.0000
  C   C210      1.0  0.81720  0.49580  0.52700  1.0000
  C   C211      1.0  0.68280  0.99580  0.97300  1.0000
  C   C212      1.0  0.31720  0.99580  0.52700  1.0000
  C   C213      1.0  0.81720  0.50420  0.02700  1.0000
  C   C214      1.0  0.18280  0.50420  0.47300  1.0000
  C   C215      1.0  0.31720  0.00420  0.02700  1.0000
  C   C216      1.0  0.68280  0.00420  0.47300  1.0000
  C   C217      1.0  0.26380  0.49780  0.99810  1.0000
  C   C218      1.0  0.73620  0.49780  0.50190  1.0000
  C   C219      1.0  0.76380  0.99780  0.99810  1.0000
  C   C220      1.0  0.23620  0.99780  0.50190  1.0000
  C   C221      1.0  0.73620  0.50220  0.00190  1.0000
  C   C222      1.0  0.26380  0.50220  0.49810  1.0000
  C   C223      1.0  0.23620  0.00220  0.00190  1.0000
  C   C224      1.0  0.76380  0.00220  0.49810  1.0000
  C   C225      1.0  0.05380  0.57420  0.84250  1.0000
  C   C226      1.0  0.94620  0.57420  0.65750  1.0000
  C   C227      1.0  0.55380  0.07420  0.84250  1.0000
  C   C228      1.0  0.44620  0.07420  0.65750  1.0000
  C   C229      1.0  0.94620  0.42580  0.15750  1.0000
  C   C230      1.0  0.05380  0.42580  0.34250  1.0000
  C   C231      1.0  0.44620  0.92580  0.15750  1.0000
  C   C232      1.0  0.55380  0.92580  0.34250  1.0000
  N   N1        1.0  0.21330  0.43190  0.10100  1.0000
  N   N2        1.0  0.78670  0.43190  0.39900  1.0000
  N   N3        1.0  0.71330  0.93190  0.10100  1.0000
  N   N4        1.0  0.28670  0.93190  0.39900  1.0000
  N   N5        1.0  0.78670  0.56810  0.89900  1.0000
  N   N6        1.0  0.21330  0.56810  0.60100  1.0000
  N   N7        1.0  0.28670  0.06810  0.89900  1.0000
  N   N8        1.0  0.71330  0.06810  0.60100  1.0000
  O   O1        1.0  0.38020  0.42437  0.11114  1.0000
  O   O2        1.0  0.61980  0.42437  0.38886  1.0000
  O   O3        1.0  0.88020  0.92437  0.11114  1.0000
  O   O4        1.0  0.11980  0.92437  0.38886  1.0000
  O   O5        1.0  0.61980  0.57563  0.88886  1.0000
  O   O6        1.0  0.38020  0.57563  0.61114  1.0000
  O   O7        1.0  0.11980  0.07563  0.88886  1.0000
  O   O8        1.0  0.88020  0.07563  0.61114  1.0000
  O   O9        1.0  0.38790  0.51250  0.14859  1.0000
  O   O10       1.0  0.61210  0.51250  0.35141  1.0000
  O   O11       1.0  0.88790  0.01250  0.14859  1.0000
  O   O12       1.0  0.11210  0.01250  0.35141  1.0000
  O   O13       1.0  0.61210  0.48750  0.85141  1.0000
  O   O14       1.0  0.38790  0.48750  0.64859  1.0000
  O   O15       1.0  0.11210  0.98750  0.85141  1.0000
  O   O16       1.0  0.88790  0.98750  0.64859  1.0000
  O   O17       1.0  0.47550  0.47980  0.38744  1.0000
  O   O18       1.0  0.52450  0.47980  0.11256  1.0000
  O   O19       1.0  0.97550  0.97980  0.38744  1.0000
  O   O20       1.0  0.02450  0.97980  0.11256  1.0000
  O   O21       1.0  0.52450  0.52020  0.61256  1.0000
  O   O22       1.0  0.47550  0.52020  0.88744  1.0000
  O   O23       1.0  0.02450  0.02020  0.61256  1.0000
  O   O24       1.0  0.97550  0.02020  0.88744  1.0000
  O   O25       1.0  0.38840  0.45530  0.43814  1.0000
  O   O26       1.0  0.61160  0.45530  0.06186  1.0000
  O   O27       1.0  0.88840  0.95530  0.43814  1.0000
  O   O28       1.0  0.11160  0.95530  0.06186  1.0000
  O   O29       1.0  0.61160  0.54470  0.56186  1.0000
  O   O30       1.0  0.38840  0.54470  0.93814  1.0000
  O   O31       1.0  0.11160  0.04470  0.56186  1.0000
  O   O32       1.0  0.88840  0.04470  0.93814  1.0000
  O   O33       1.0  0.98220  0.28390  0.17290  1.0000
  O   O34       1.0  0.01780  0.28390  0.32710  1.0000
  O   O35       1.0  0.48220  0.78390  0.17290  1.0000
  O   O36       1.0  0.51780  0.78390  0.32710  1.0000
  O   O37       1.0  0.01780  0.71610  0.82710  1.0000
  O   O38       1.0  0.98220  0.71610  0.67290  1.0000
  O   O39       1.0  0.51780  0.21610  0.82710  1.0000
  O   O40       1.0  0.48220  0.21610  0.67290  1.0000
  O   O41       1.0  0.09180  0.31160  0.20850  1.0000
  O   O42       1.0  0.90820  0.31160  0.29150  1.0000
  O   O43       1.0  0.59180  0.81160  0.20850  1.0000
  O   O44       1.0  0.40820  0.81160  0.29150  1.0000
  O   O45       1.0  0.90820  0.68840  0.79150  1.0000
  O   O46       1.0  0.09180  0.68840  0.70850  1.0000
  O   O47       1.0  0.40820  0.18840  0.79150  1.0000
  O   O48       1.0  0.59180  0.18840  0.70850  1.0000
  O   O49       1.0  0.95710  0.09768  0.07132  1.0000
  O   O50       1.0  0.04290  0.09768  0.42868  1.0000
  O   O51       1.0  0.45710  0.59768  0.07132  1.0000
  O   O52       1.0  0.54290  0.59768  0.42868  1.0000
  O   O53       1.0  0.04290  0.90232  0.92868  1.0000
  O   O54       1.0  0.95710  0.90232  0.57132  1.0000
  O   O55       1.0  0.54290  0.40232  0.92868  1.0000
  O   O56       1.0  0.45710  0.40232  0.57132  1.0000
  O   O57       1.0  0.03360  0.06547  0.01431  1.0000
  O   O58       1.0  0.96640  0.06547  0.48569  1.0000
  O   O59       1.0  0.53360  0.56547  0.01431  1.0000
  O   O60       1.0  0.46640  0.56547  0.48569  1.0000
  O   O61       1.0  0.96640  0.93453  0.98569  1.0000
  O   O62       1.0  0.03360  0.93453  0.51431  1.0000
  O   O63       1.0  0.46640  0.43453  0.98569  1.0000
  O   O64       1.0  0.53360  0.43453  0.51431  1.0000
  O   O65       1.0  0.29060  0.54220  0.02790  1.0000
  O   O66       1.0  0.70940  0.54220  0.47210  1.0000
  O   O67       1.0  0.79060  0.04220  0.02790  1.0000
  O   O68       1.0  0.20940  0.04220  0.47210  1.0000
  O   O69       1.0  0.70940  0.45780  0.97210  1.0000
  O   O70       1.0  0.29060  0.45780  0.52790  1.0000
  O   O71       1.0  0.20940  0.95780  0.97210  1.0000
  O   O72       1.0  0.79060  0.95780  0.52790  1.0000
  O   O73       1.0  0.30090  0.45604  0.98600  1.0000
  O   O74       1.0  0.69910  0.45604  0.51400  1.0000
  O   O75       1.0  0.80090  0.95604  0.98600  1.0000
  O   O76       1.0  0.19910  0.95604  0.51400  1.0000
  O   O77       1.0  0.69910  0.54396  0.01400  1.0000
  O   O78       1.0  0.30090  0.54396  0.48600  1.0000
  O   O79       1.0  0.19910  0.04396  0.01400  1.0000
  O   O80       1.0  0.80090  0.04396  0.48600  1.0000
  O   O81       1.0  0.98710  0.57500  0.81930  1.0000
  O   O82       1.0  0.01290  0.57500  0.68070  1.0000
  O   O83       1.0  0.48710  0.07500  0.81930  1.0000
  O   O84       1.0  0.51290  0.07500  0.68070  1.0000
  O   O85       1.0  0.01290  0.42500  0.18070  1.0000
  O   O86       1.0  0.98710  0.42500  0.31930  1.0000
  O   O87       1.0  0.51290  0.92500  0.18070  1.0000
  O   O88       1.0  0.48710  0.92500  0.31930  1.0000
  O   O89       1.0  0.09450  0.60640  0.82120  1.0000
  O   O90       1.0  0.90550  0.60640  0.67880  1.0000
  O   O91       1.0  0.59450  0.10640  0.82120  1.0000
  O   O92       1.0  0.40550  0.10640  0.67880  1.0000
  O   O93       1.0  0.90550  0.39360  0.17880  1.0000
  O   O94       1.0  0.09450  0.39360  0.32120  1.0000
  O   O95       1.0  0.40550  0.89360  0.17880  1.0000
  O   O96       1.0  0.59450  0.89360  0.32120  1.0000
