data_image0
_chemical_formula_structural       C24H8C16H8C8H8C40H8C16H8C16H8C8H8C16H8C56H8C16H8C8H8C8Lu12N8H8O96
_chemical_formula_sum              "C232 H96 Lu12 N8 O96"
_cell_length_a       18.7467
_cell_length_b       23.2568
_cell_length_c       21.2745
_cell_angle_alpha    90
_cell_angle_beta     101.6
_cell_angle_gamma    90

_space_group_name_H-M_alt    "P 1"
_space_group_IT_number       1

loop_
  _space_group_symop_operation_xyz
  'x, y, z'

loop_
  _atom_site_type_symbol
  _atom_site_label
  _atom_site_symmetry_multiplicity
  _atom_site_fract_x
  _atom_site_fract_y
  _atom_site_fract_z
  _atom_site_occupancy
  C   C1        1.0  0.73400  0.49910  0.99990  1.0000
  C   C2        1.0  0.26600  0.49910  0.50010  1.0000
  C   C3        1.0  0.23400  0.99910  0.99990  1.0000
  C   C4        1.0  0.76600  0.99910  0.50010  1.0000
  C   C5        1.0  0.26600  0.50090  0.00010  1.0000
  C   C6        1.0  0.73400  0.50090  0.49990  1.0000
  C   C7        1.0  0.76600  0.00090  0.00010  1.0000
  C   C8        1.0  0.23400  0.00090  0.49990  1.0000
  C   C9        1.0  0.81590  0.50080  0.02480  1.0000
  C   C10       1.0  0.18410  0.50080  0.47520  1.0000
  C   C11       1.0  0.31590  0.00080  0.02480  1.0000
  C   C12       1.0  0.68410  0.00080  0.47520  1.0000
  C   C13       1.0  0.18410  0.49920  0.97520  1.0000
  C   C14       1.0  0.81590  0.49920  0.52480  1.0000
  C   C15       1.0  0.68410  0.99920  0.97520  1.0000
  C   C16       1.0  0.31590  0.99920  0.52480  1.0000
  C   C17       1.0  0.84350  0.46370  0.07300  1.0000
  C   C18       1.0  0.15650  0.46370  0.42700  1.0000
  C   C19       1.0  0.34350  0.96370  0.07300  1.0000
  C   C20       1.0  0.65650  0.96370  0.42700  1.0000
  C   C21       1.0  0.15650  0.53630  0.92700  1.0000
  C   C22       1.0  0.84350  0.53630  0.57300  1.0000
  C   C23       1.0  0.65650  0.03630  0.92700  1.0000
  C   C24       1.0  0.34350  0.03630  0.57300  1.0000
  H   H1        1.0  0.81290  0.43700  0.08670  1.0000
  H   H2        1.0  0.18710  0.43700  0.41330  1.0000
  H   H3        1.0  0.31290  0.93700  0.08670  1.0000
  H   H4        1.0  0.68710  0.93700  0.41330  1.0000
  H   H5        1.0  0.18710  0.56300  0.91330  1.0000
  H   H6        1.0  0.81290  0.56300  0.58670  1.0000
  H   H7        1.0  0.68710  0.06300  0.91330  1.0000
  H   H8        1.0  0.31290  0.06300  0.58670  1.0000
  C   C25       1.0  0.91680  0.46510  0.10210  1.0000
  C   C26       1.0  0.08320  0.46510  0.39790  1.0000
  C   C27       1.0  0.41680  0.96510  0.10210  1.0000
  C   C28       1.0  0.58320  0.96510  0.39790  1.0000
  C   C29       1.0  0.08320  0.53490  0.89790  1.0000
  C   C30       1.0  0.91680  0.53490  0.60210  1.0000
  C   C31       1.0  0.58320  0.03490  0.89790  1.0000
  C   C32       1.0  0.41680  0.03490  0.60210  1.0000
  C   C33       1.0  0.96180  0.50450  0.08020  1.0000
  C   C34       1.0  0.03820  0.50450  0.41980  1.0000
  C   C35       1.0  0.46180  0.00450  0.08020  1.0000
  C   C36       1.0  0.53820  0.00450  0.41980  1.0000
  C   C37       1.0  0.03820  0.49550  0.91980  1.0000
  C   C38       1.0  0.96180  0.49550  0.58020  1.0000
  C   C39       1.0  0.53820  0.99550  0.91980  1.0000
  C   C40       1.0  0.46180  0.99550  0.58020  1.0000
  H   H9        1.0  0.01140  0.50480  0.09790  1.0000
  H   H10       1.0  0.98860  0.50480  0.40210  1.0000
  H   H11       1.0  0.51140  0.00480  0.09790  1.0000
  H   H12       1.0  0.48860  0.00480  0.40210  1.0000
  H   H13       1.0  0.98860  0.49520  0.90210  1.0000
  H   H14       1.0  0.01140  0.49520  0.59790  1.0000
  H   H15       1.0  0.48860  0.99520  0.90210  1.0000
  H   H16       1.0  0.51140  0.99520  0.59790  1.0000
  C   C41       1.0  0.93420  0.54300  0.03310  1.0000
  C   C42       1.0  0.06580  0.54300  0.46690  1.0000
  C   C43       1.0  0.43420  0.04300  0.03310  1.0000
  C   C44       1.0  0.56580  0.04300  0.46690  1.0000
  C   C45       1.0  0.06580  0.45700  0.96690  1.0000
  C   C46       1.0  0.93420  0.45700  0.53310  1.0000
  C   C47       1.0  0.56580  0.95700  0.96690  1.0000
  C   C48       1.0  0.43420  0.95700  0.53310  1.0000
  H   H17       1.0  0.96510  0.57000  0.02020  1.0000
  H   H18       1.0  0.03490  0.57000  0.47980  1.0000
  H   H19       1.0  0.46510  0.07000  0.02020  1.0000
  H   H20       1.0  0.53490  0.07000  0.47980  1.0000
  H   H21       1.0  0.03490  0.43000  0.97980  1.0000
  H   H22       1.0  0.96510  0.43000  0.52020  1.0000
  H   H23       1.0  0.53490  0.93000  0.97980  1.0000
  H   H24       1.0  0.46510  0.93000  0.52020  1.0000
  C   C49       1.0  0.86080  0.54260  0.00400  1.0000
  C   C50       1.0  0.13920  0.54260  0.49600  1.0000
  C   C51       1.0  0.36080  0.04260  0.00400  1.0000
  C   C52       1.0  0.63920  0.04260  0.49600  1.0000
  C   C53       1.0  0.13920  0.45740  0.99600  1.0000
  C   C54       1.0  0.86080  0.45740  0.50400  1.0000
  C   C55       1.0  0.63920  0.95740  0.99600  1.0000
  C   C56       1.0  0.36080  0.95740  0.50400  1.0000
  C   C57       1.0  0.94660  0.42460  0.15570  1.0000
  C   C58       1.0  0.05340  0.42460  0.34430  1.0000
  C   C59       1.0  0.44660  0.92460  0.15570  1.0000
  C   C60       1.0  0.55340  0.92460  0.34430  1.0000
  C   C61       1.0  0.05340  0.57540  0.84430  1.0000
  C   C62       1.0  0.94660  0.57540  0.65570  1.0000
  C   C63       1.0  0.55340  0.07540  0.84430  1.0000
  C   C64       1.0  0.44660  0.07540  0.65570  1.0000
  C   C65       1.0  0.83360  0.58460  0.95220  1.0000
  C   C66       1.0  0.16640  0.58460  0.54780  1.0000
  C   C67       1.0  0.33360  0.08460  0.95220  1.0000
  C   C68       1.0  0.66640  0.08460  0.54780  1.0000
  C   C69       1.0  0.16640  0.41540  0.04780  1.0000
  C   C70       1.0  0.83360  0.41540  0.45220  1.0000
  C   C71       1.0  0.66640  0.91540  0.04780  1.0000
  C   C72       1.0  0.33360  0.91540  0.45220  1.0000
  C   C73       1.0  0.76250  0.60770  0.85080  1.0000
  C   C74       1.0  0.23750  0.60770  0.64920  1.0000
  C   C75       1.0  0.26250  0.10770  0.85080  1.0000
  C   C76       1.0  0.73750  0.10770  0.64920  1.0000
  C   C77       1.0  0.23750  0.39230  0.14920  1.0000
  C   C78       1.0  0.76250  0.39230  0.35080  1.0000
  C   C79       1.0  0.73750  0.89230  0.14920  1.0000
  C   C80       1.0  0.26250  0.89230  0.35080  1.0000
  C   C81       1.0  0.78890  0.66330  0.85640  1.0000
  C   C82       1.0  0.21110  0.66330  0.64360  1.0000
  C   C83       1.0  0.28890  0.16330  0.85640  1.0000
  C   C84       1.0  0.71110  0.16330  0.64360  1.0000
  C   C85       1.0  0.21110  0.33670  0.14360  1.0000
  C   C86       1.0  0.78890  0.33670  0.35640  1.0000
  C   C87       1.0  0.71110  0.83670  0.14360  1.0000
  C   C88       1.0  0.28890  0.83670  0.35640  1.0000
  H   H25       1.0  0.77290  0.69010  0.82420  1.0000
  H   H26       1.0  0.22710  0.69010  0.67580  1.0000
  H   H27       1.0  0.27290  0.19010  0.82420  1.0000
  H   H28       1.0  0.72710  0.19010  0.67580  1.0000
  H   H29       1.0  0.22710  0.30990  0.17580  1.0000
  H   H30       1.0  0.77290  0.30990  0.32420  1.0000
  H   H31       1.0  0.72710  0.80990  0.17580  1.0000
  H   H32       1.0  0.27290  0.80990  0.32420  1.0000
  C   C89       1.0  0.83920  0.67840  0.91040  1.0000
  C   C90       1.0  0.16080  0.67840  0.58960  1.0000
  C   C91       1.0  0.33920  0.17840  0.91040  1.0000
  C   C92       1.0  0.66080  0.17840  0.58960  1.0000
  C   C93       1.0  0.16080  0.32160  0.08960  1.0000
  C   C94       1.0  0.83920  0.32160  0.41040  1.0000
  C   C95       1.0  0.66080  0.82160  0.08960  1.0000
  C   C96       1.0  0.33920  0.82160  0.41040  1.0000
  C   C97       1.0  0.86110  0.63910  0.95880  1.0000
  C   C98       1.0  0.13890  0.63910  0.54120  1.0000
  C   C99       1.0  0.36110  0.13910  0.95880  1.0000
  C   C100      1.0  0.63890  0.13910  0.54120  1.0000
  C   C101      1.0  0.13890  0.36090  0.04120  1.0000
  C   C102      1.0  0.86110  0.36090  0.45880  1.0000
  C   C103      1.0  0.63890  0.86090  0.04120  1.0000
  C   C104      1.0  0.36110  0.86090  0.45880  1.0000
  H   H33       1.0  0.89440  0.64960  0.99560  1.0000
  H   H34       1.0  0.10560  0.64960  0.50440  1.0000
  H   H35       1.0  0.39440  0.14960  0.99560  1.0000
  H   H36       1.0  0.60560  0.14960  0.50440  1.0000
  H   H37       1.0  0.10560  0.35040  0.00440  1.0000
  H   H38       1.0  0.89440  0.35040  0.49560  1.0000
  H   H39       1.0  0.60560  0.85040  0.00440  1.0000
  H   H40       1.0  0.39440  0.85040  0.49560  1.0000
  C   C105      1.0  0.87290  0.73640  0.91800  1.0000
  C   C106      1.0  0.12710  0.73640  0.58200  1.0000
  C   C107      1.0  0.37290  0.23640  0.91800  1.0000
  C   C108      1.0  0.62710  0.23640  0.58200  1.0000
  C   C109      1.0  0.12710  0.26360  0.08200  1.0000
  C   C110      1.0  0.87290  0.26360  0.41800  1.0000
  C   C111      1.0  0.62710  0.76360  0.08200  1.0000
  C   C112      1.0  0.37290  0.76360  0.41800  1.0000
  C   C113      1.0  0.85820  0.77230  0.96440  1.0000
  C   C114      1.0  0.14180  0.77230  0.53560  1.0000
  C   C115      1.0  0.35820  0.27230  0.96440  1.0000
  C   C116      1.0  0.64180  0.27230  0.53560  1.0000
  C   C117      1.0  0.14180  0.22770  0.03560  1.0000
  C   C118      1.0  0.85820  0.22770  0.46440  1.0000
  C   C119      1.0  0.64180  0.72770  0.03560  1.0000
  C   C120      1.0  0.35820  0.72770  0.46440  1.0000
  H   H41       1.0  0.82430  0.76110  0.98840  1.0000
  H   H42       1.0  0.17570  0.76110  0.51160  1.0000
  H   H43       1.0  0.32430  0.26110  0.98840  1.0000
  H   H44       1.0  0.67570  0.26110  0.51160  1.0000
  H   H45       1.0  0.17570  0.23890  0.01160  1.0000
  H   H46       1.0  0.82430  0.23890  0.48840  1.0000
  H   H47       1.0  0.67570  0.73890  0.01160  1.0000
  H   H48       1.0  0.32430  0.73890  0.48840  1.0000
  C   C121      1.0  0.89320  0.82660  0.97720  1.0000
  C   C122      1.0  0.10680  0.82660  0.52280  1.0000
  C   C123      1.0  0.39320  0.32660  0.97720  1.0000
  C   C124      1.0  0.60680  0.32660  0.52280  1.0000
  C   C125      1.0  0.10680  0.17340  0.02280  1.0000
  C   C126      1.0  0.89320  0.17340  0.47720  1.0000
  C   C127      1.0  0.60680  0.67340  0.02280  1.0000
  C   C128      1.0  0.39320  0.67340  0.47720  1.0000
  H   H49       1.0  0.88100  0.85080  0.00810  1.0000
  H   H50       1.0  0.11900  0.85080  0.49190  1.0000
  H   H51       1.0  0.38100  0.35080  0.00810  1.0000
  H   H52       1.0  0.61900  0.35080  0.49190  1.0000
  H   H53       1.0  0.11900  0.14920  0.99190  1.0000
  H   H54       1.0  0.88100  0.14920  0.50810  1.0000
  H   H55       1.0  0.61900  0.64920  0.99190  1.0000
  H   H56       1.0  0.38100  0.64920  0.50810  1.0000
  C   C129      1.0  0.94510  0.84270  0.94380  1.0000
  C   C130      1.0  0.05490  0.84270  0.55620  1.0000
  C   C131      1.0  0.44510  0.34270  0.94380  1.0000
  C   C132      1.0  0.55490  0.34270  0.55620  1.0000
  C   C133      1.0  0.05490  0.15730  0.05620  1.0000
  C   C134      1.0  0.94510  0.15730  0.44380  1.0000
  C   C135      1.0  0.55490  0.65730  0.05620  1.0000
  C   C136      1.0  0.44510  0.65730  0.44380  1.0000
  C   C137      1.0  0.96150  0.80600  0.89800  1.0000
  C   C138      1.0  0.03850  0.80600  0.60200  1.0000
  C   C139      1.0  0.46150  0.30600  0.89800  1.0000
  C   C140      1.0  0.53850  0.30600  0.60200  1.0000
  C   C141      1.0  0.03850  0.19400  0.10200  1.0000
  C   C142      1.0  0.96150  0.19400  0.39800  1.0000
  C   C143      1.0  0.53850  0.69400  0.10200  1.0000
  C   C144      1.0  0.46150  0.69400  0.39800  1.0000
  H   H57       1.0  0.99790  0.81630  0.87630  1.0000
  H   H58       1.0  0.00210  0.81630  0.62370  1.0000
  H   H59       1.0  0.49790  0.31630  0.87630  1.0000
  H   H60       1.0  0.50210  0.31630  0.62370  1.0000
  H   H61       1.0  0.00210  0.18370  0.12370  1.0000
  H   H62       1.0  0.99790  0.18370  0.37630  1.0000
  H   H63       1.0  0.50210  0.68370  0.12370  1.0000
  H   H64       1.0  0.49790  0.68370  0.37630  1.0000
  C   C145      1.0  0.92510  0.75320  0.88290  1.0000
  C   C146      1.0  0.07490  0.75320  0.61710  1.0000
  C   C147      1.0  0.42510  0.25320  0.88290  1.0000
  C   C148      1.0  0.57490  0.25320  0.61710  1.0000
  C   C149      1.0  0.07490  0.24680  0.11710  1.0000
  C   C150      1.0  0.92510  0.24680  0.38290  1.0000
  C   C151      1.0  0.57490  0.74680  0.11710  1.0000
  C   C152      1.0  0.42510  0.74680  0.38290  1.0000
  C   C153      1.0  0.58330  0.53580  0.60920  1.0000
  C   C154      1.0  0.41670  0.53580  0.89080  1.0000
  C   C155      1.0  0.08330  0.03580  0.60920  1.0000
  C   C156      1.0  0.91670  0.03580  0.89080  1.0000
  C   C157      1.0  0.41670  0.46420  0.39080  1.0000
  C   C158      1.0  0.58330  0.46420  0.10920  1.0000
  C   C159      1.0  0.91670  0.96420  0.39080  1.0000
  C   C160      1.0  0.08330  0.96420  0.10920  1.0000
  C   C161      1.0  0.95020  0.71710  0.83210  1.0000
  C   C162      1.0  0.04980  0.71710  0.66790  1.0000
  C   C163      1.0  0.45020  0.21710  0.83210  1.0000
  C   C164      1.0  0.54980  0.21710  0.66790  1.0000
  C   C165      1.0  0.04980  0.28290  0.16790  1.0000
  C   C166      1.0  0.95020  0.28290  0.33210  1.0000
  C   C167      1.0  0.54980  0.78290  0.16790  1.0000
  C   C168      1.0  0.45020  0.78290  0.33210  1.0000
  C   C169      1.0  0.98590  0.89720  0.95610  1.0000
  C   C170      1.0  0.01410  0.89720  0.54390  1.0000
  C   C171      1.0  0.48590  0.39720  0.95610  1.0000
  C   C172      1.0  0.51410  0.39720  0.54390  1.0000
  C   C173      1.0  0.01410  0.10280  0.04390  1.0000
  C   C174      1.0  0.98590  0.10280  0.45610  1.0000
  C   C175      1.0  0.51410  0.60280  0.04390  1.0000
  C   C176      1.0  0.48590  0.60280  0.45610  1.0000
  C   C177      1.0  0.71330  0.59080  0.78980  1.0000
  C   C178      1.0  0.28670  0.59080  0.71020  1.0000
  C   C179      1.0  0.21330  0.09080  0.78980  1.0000
  C   C180      1.0  0.78670  0.09080  0.71020  1.0000
  C   C181      1.0  0.28670  0.40920  0.21020  1.0000
  C   C182      1.0  0.71330  0.40920  0.28980  1.0000
  C   C183      1.0  0.78670  0.90920  0.21020  1.0000
  C   C184      1.0  0.21330  0.90920  0.28980  1.0000
  C   C185      1.0  0.65060  0.55720  0.78750  1.0000
  C   C186      1.0  0.34940  0.55720  0.71250  1.0000
  C   C187      1.0  0.15060  0.05720  0.78750  1.0000
  C   C188      1.0  0.84940  0.05720  0.71250  1.0000
  C   C189      1.0  0.34940  0.44280  0.21250  1.0000
  C   C190      1.0  0.65060  0.44280  0.28750  1.0000
  C   C191      1.0  0.84940  0.94280  0.21250  1.0000
  C   C192      1.0  0.15060  0.94280  0.28750  1.0000
  C   C193      1.0  0.60890  0.54130  0.72960  1.0000
  C   C194      1.0  0.39110  0.54130  0.77040  1.0000
  C   C195      1.0  0.10890  0.04130  0.72960  1.0000
  C   C196      1.0  0.89110  0.04130  0.77040  1.0000
  C   C197      1.0  0.39110  0.45870  0.27040  1.0000
  C   C198      1.0  0.60890  0.45870  0.22960  1.0000
  C   C199      1.0  0.89110  0.95870  0.27040  1.0000
  C   C200      1.0  0.10890  0.95870  0.22960  1.0000
  H   H65       1.0  0.56640  0.52040  0.72870  1.0000
  H   H66       1.0  0.43360  0.52040  0.77130  1.0000
  H   H67       1.0  0.06640  0.02040  0.72870  1.0000
  H   H68       1.0  0.93360  0.02040  0.77130  1.0000
  H   H69       1.0  0.43360  0.47960  0.27130  1.0000
  H   H70       1.0  0.56640  0.47960  0.22870  1.0000
  H   H71       1.0  0.93360  0.97960  0.27130  1.0000
  H   H72       1.0  0.06640  0.97960  0.22870  1.0000
  C   C201      1.0  0.62880  0.55570  0.67220  1.0000
  C   C202      1.0  0.37120  0.55570  0.82780  1.0000
  C   C203      1.0  0.12880  0.05570  0.67220  1.0000
  C   C204      1.0  0.87120  0.05570  0.82780  1.0000
  C   C205      1.0  0.37120  0.44430  0.32780  1.0000
  C   C206      1.0  0.62880  0.44430  0.17220  1.0000
  C   C207      1.0  0.87120  0.94430  0.32780  1.0000
  C   C208      1.0  0.12880  0.94430  0.17220  1.0000
  C   C209      1.0  0.69180  0.58760  0.67380  1.0000
  C   C210      1.0  0.30820  0.58760  0.82620  1.0000
  C   C211      1.0  0.19180  0.08760  0.67380  1.0000
  C   C212      1.0  0.80820  0.08760  0.82620  1.0000
  C   C213      1.0  0.30820  0.41240  0.32620  1.0000
  C   C214      1.0  0.69180  0.41240  0.17380  1.0000
  C   C215      1.0  0.80820  0.91240  0.32620  1.0000
  C   C216      1.0  0.19180  0.91240  0.17380  1.0000
  H   H73       1.0  0.70620  0.59710  0.63580  1.0000
  H   H74       1.0  0.29380  0.59710  0.86420  1.0000
  H   H75       1.0  0.20620  0.09710  0.63580  1.0000
  H   H76       1.0  0.79380  0.09710  0.86420  1.0000
  H   H77       1.0  0.29380  0.40290  0.36420  1.0000
  H   H78       1.0  0.70620  0.40290  0.13580  1.0000
  H   H79       1.0  0.79380  0.90290  0.36420  1.0000
  H   H80       1.0  0.20620  0.90290  0.13580  1.0000
  C   C217      1.0  0.73310  0.60540  0.73210  1.0000
  C   C218      1.0  0.26690  0.60540  0.76790  1.0000
  C   C219      1.0  0.23310  0.10540  0.73210  1.0000
  C   C220      1.0  0.76690  0.10540  0.76790  1.0000
  C   C221      1.0  0.26690  0.39460  0.26790  1.0000
  C   C222      1.0  0.73310  0.39460  0.23210  1.0000
  C   C223      1.0  0.76690  0.89460  0.26790  1.0000
  C   C224      1.0  0.23310  0.89460  0.23210  1.0000
  H   H81       1.0  0.77470  0.62740  0.73270  1.0000
  H   H82       1.0  0.22530  0.62740  0.76730  1.0000
  H   H83       1.0  0.27470  0.12740  0.73270  1.0000
  H   H84       1.0  0.72530  0.12740  0.76730  1.0000
  H   H85       1.0  0.22530  0.37260  0.26730  1.0000
  H   H86       1.0  0.77470  0.37260  0.23270  1.0000
  H   H87       1.0  0.72530  0.87260  0.26730  1.0000
  H   H88       1.0  0.27470  0.87260  0.23270  1.0000
  C   C225      1.0  0.62510  0.53850  0.84720  1.0000
  C   C226      1.0  0.37490  0.53850  0.65280  1.0000
  C   C227      1.0  0.12510  0.03850  0.84720  1.0000
  C   C228      1.0  0.87490  0.03850  0.65280  1.0000
  C   C229      1.0  0.37490  0.46150  0.15280  1.0000
  C   C230      1.0  0.62510  0.46150  0.34720  1.0000
  C   C231      1.0  0.87490  0.96150  0.15280  1.0000
  C   C232      1.0  0.12510  0.96150  0.34720  1.0000
  Lu  Lu1       1.0  0.58547  0.49695  0.95803  1.0000
  Lu  Lu2       1.0  0.41453  0.49695  0.54197  1.0000
  Lu  Lu3       1.0  0.08547  0.99695  0.95803  1.0000
  Lu  Lu4       1.0  0.91453  0.99695  0.54197  1.0000
  Lu  Lu5       1.0  0.41453  0.50305  0.04197  1.0000
  Lu  Lu6       1.0  0.58547  0.50305  0.45803  1.0000
  Lu  Lu7       1.0  0.91453  0.00305  0.04197  1.0000
  Lu  Lu8       1.0  0.08547  0.00305  0.45803  1.0000
  Lu  Lu9       1.0  0.00000  0.64921  0.75000  1.0000
  Lu  Lu10      1.0  0.50000  0.14921  0.75000  1.0000
  Lu  Lu11      1.0  0.00000  0.35079  0.25000  1.0000
  Lu  Lu12      1.0  0.50000  0.85079  0.25000  1.0000
  N   N1        1.0  0.78550  0.56820  0.89830  1.0000
  N   N2        1.0  0.21450  0.56820  0.60170  1.0000
  N   N3        1.0  0.28550  0.06820  0.89830  1.0000
  N   N4        1.0  0.71450  0.06820  0.60170  1.0000
  N   N5        1.0  0.21450  0.43180  0.10170  1.0000
  N   N6        1.0  0.78550  0.43180  0.39830  1.0000
  N   N7        1.0  0.71450  0.93180  0.10170  1.0000
  N   N8        1.0  0.28550  0.93180  0.39830  1.0000
  H   H89       1.0  0.76970  0.53340  0.89420  1.0000
  H   H90       1.0  0.23030  0.53340  0.60580  1.0000
  H   H91       1.0  0.26970  0.03340  0.89420  1.0000
  H   H92       1.0  0.73030  0.03340  0.60580  1.0000
  H   H93       1.0  0.23030  0.46660  0.10580  1.0000
  H   H94       1.0  0.76970  0.46660  0.39420  1.0000
  H   H95       1.0  0.73030  0.96660  0.10580  1.0000
  H   H96       1.0  0.26970  0.96660  0.39420  1.0000
  O   O1        1.0  0.61670  0.57400  0.88860  1.0000
  O   O2        1.0  0.38330  0.57400  0.61140  1.0000
  O   O3        1.0  0.11670  0.07400  0.88860  1.0000
  O   O4        1.0  0.88330  0.07400  0.61140  1.0000
  O   O5        1.0  0.38330  0.42600  0.11140  1.0000
  O   O6        1.0  0.61670  0.42600  0.38860  1.0000
  O   O7        1.0  0.88330  0.92600  0.11140  1.0000
  O   O8        1.0  0.11670  0.92600  0.38860  1.0000
  O   O9        1.0  0.61230  0.48490  0.85300  1.0000
  O   O10       1.0  0.38770  0.48490  0.64700  1.0000
  O   O11       1.0  0.11230  0.98490  0.85300  1.0000
  O   O12       1.0  0.88770  0.98490  0.64700  1.0000
  O   O13       1.0  0.38770  0.51510  0.14700  1.0000
  O   O14       1.0  0.61230  0.51510  0.35300  1.0000
  O   O15       1.0  0.88770  0.01510  0.14700  1.0000
  O   O16       1.0  0.11230  0.01510  0.35300  1.0000
  O   O17       1.0  0.60940  0.54180  0.56000  1.0000
  O   O18       1.0  0.39060  0.54180  0.94000  1.0000
  O   O19       1.0  0.10940  0.04180  0.56000  1.0000
  O   O20       1.0  0.89060  0.04180  0.94000  1.0000
  O   O21       1.0  0.39060  0.45820  0.44000  1.0000
  O   O22       1.0  0.60940  0.45820  0.06000  1.0000
  O   O23       1.0  0.89060  0.95820  0.44000  1.0000
  O   O24       1.0  0.10940  0.95820  0.06000  1.0000
  O   O25       1.0  0.52190  0.51550  0.61150  1.0000
  O   O26       1.0  0.47810  0.51550  0.88850  1.0000
  O   O27       1.0  0.02190  0.01550  0.61150  1.0000
  O   O28       1.0  0.97810  0.01550  0.88850  1.0000
  O   O29       1.0  0.47810  0.48450  0.38850  1.0000
  O   O30       1.0  0.52190  0.48450  0.11150  1.0000
  O   O31       1.0  0.97810  0.98450  0.38850  1.0000
  O   O32       1.0  0.02190  0.98450  0.11150  1.0000
  O   O33       1.0  0.69620  0.54200  0.00950  1.0000
  O   O34       1.0  0.30380  0.54200  0.49050  1.0000
  O   O35       1.0  0.19620  0.04200  0.00950  1.0000
  O   O36       1.0  0.80380  0.04200  0.49050  1.0000
  O   O37       1.0  0.30380  0.45800  0.99050  1.0000
  O   O38       1.0  0.69620  0.45800  0.50950  1.0000
  O   O39       1.0  0.80380  0.95800  0.99050  1.0000
  O   O40       1.0  0.19620  0.95800  0.50950  1.0000
  O   O41       1.0  0.70590  0.45490  0.97190  1.0000
  O   O42       1.0  0.29410  0.45490  0.52810  1.0000
  O   O43       1.0  0.20590  0.95490  0.97190  1.0000
  O   O44       1.0  0.79410  0.95490  0.52810  1.0000
  O   O45       1.0  0.29410  0.54510  0.02810  1.0000
  O   O46       1.0  0.70590  0.54510  0.47190  1.0000
  O   O47       1.0  0.79410  0.04510  0.02810  1.0000
  O   O48       1.0  0.20590  0.04510  0.47190  1.0000
  O   O49       1.0  0.90380  0.39120  0.17720  1.0000
  O   O50       1.0  0.09620  0.39120  0.32280  1.0000
  O   O51       1.0  0.40380  0.89120  0.17720  1.0000
  O   O52       1.0  0.59620  0.89120  0.32280  1.0000
  O   O53       1.0  0.09620  0.60880  0.82280  1.0000
  O   O54       1.0  0.90380  0.60880  0.67720  1.0000
  O   O55       1.0  0.59620  0.10880  0.82280  1.0000
  O   O56       1.0  0.40380  0.10880  0.67720  1.0000
  O   O57       1.0  0.01350  0.42370  0.17840  1.0000
  O   O58       1.0  0.98650  0.42370  0.32160  1.0000
  O   O59       1.0  0.51350  0.92370  0.17840  1.0000
  O   O60       1.0  0.48650  0.92370  0.32160  1.0000
  O   O61       1.0  0.98650  0.57630  0.82160  1.0000
  O   O62       1.0  0.01350  0.57630  0.67840  1.0000
  O   O63       1.0  0.48650  0.07630  0.82160  1.0000
  O   O64       1.0  0.51350  0.07630  0.67840  1.0000
  O   O65       1.0  0.96260  0.93500  0.98980  1.0000
  O   O66       1.0  0.03740  0.93500  0.51020  1.0000
  O   O67       1.0  0.46260  0.43500  0.98980  1.0000
  O   O68       1.0  0.53740  0.43500  0.51020  1.0000
  O   O69       1.0  0.03740  0.06500  0.01020  1.0000
  O   O70       1.0  0.96260  0.06500  0.48980  1.0000
  O   O71       1.0  0.53740  0.56500  0.01020  1.0000
  O   O72       1.0  0.46260  0.56500  0.48980  1.0000
  O   O73       1.0  0.04190  0.90430  0.93360  1.0000
  O   O74       1.0  0.95810  0.90430  0.56640  1.0000
  O   O75       1.0  0.54190  0.40430  0.93360  1.0000
  O   O76       1.0  0.45810  0.40430  0.56640  1.0000
  O   O77       1.0  0.95810  0.09570  0.06640  1.0000
  O   O78       1.0  0.04190  0.09570  0.43360  1.0000
  O   O79       1.0  0.45810  0.59570  0.06640  1.0000
  O   O80       1.0  0.54190  0.59570  0.43360  1.0000
  O   O81       1.0  0.01760  0.71930  0.82780  1.0000
  O   O82       1.0  0.98240  0.71930  0.67220  1.0000
  O   O83       1.0  0.51760  0.21930  0.82780  1.0000
  O   O84       1.0  0.48240  0.21930  0.67220  1.0000
  O   O85       1.0  0.98240  0.28070  0.17220  1.0000
  O   O86       1.0  0.01760  0.28070  0.32780  1.0000
  O   O87       1.0  0.48240  0.78070  0.17220  1.0000
  O   O88       1.0  0.51760  0.78070  0.32780  1.0000
  O   O89       1.0  0.90740  0.69060  0.79200  1.0000
  O   O90       1.0  0.09260  0.69060  0.70800  1.0000
  O   O91       1.0  0.40740  0.19060  0.79200  1.0000
  O   O92       1.0  0.59260  0.19060  0.70800  1.0000
  O   O93       1.0  0.09260  0.30940  0.20800  1.0000
  O   O94       1.0  0.90740  0.30940  0.29200  1.0000
  O   O95       1.0  0.59260  0.80940  0.20800  1.0000
  O   O96       1.0  0.40740  0.80940  0.29200  1.0000
