data_image0
_chemical_formula_structural       Sn8O16C8H8C12H4C4H4C4H4C4H4C4H4C8H4C4H4C4H4C4H4C4H4C8H4C4H4C4H4C4H4C4H4C8H4C4H4C4H4C4H4C4H4C8H4C4H4C4H4C4H4C4H4C8H4C4H4C4H4C4H4C4H4Sn4O16C8H8C12H4C4H4C4H4C4H4C4H4C8H4C4H4C4H4C4H4C4H4C8H4C4H4C4H4C4H4C4H4
_chemical_formula_sum              "Sn12 O32 C240 H196"
_cell_length_a       23.191
_cell_length_b       19.9363
_cell_length_c       14.1171
_cell_angle_alpha    90
_cell_angle_beta     90
_cell_angle_gamma    90

_space_group_name_H-M_alt    "P 1"
_space_group_IT_number       1

loop_
  _space_group_symop_operation_xyz
  'x, y, z'

loop_
  _atom_site_type_symbol
  _atom_site_label
  _atom_site_symmetry_multiplicity
  _atom_site_fract_x
  _atom_site_fract_y
  _atom_site_fract_z
  _atom_site_occupancy
  Sn  Sn1       1.0  0.00493  0.97179  0.03095  1.0000
  Sn  Sn2       1.0  0.99507  0.02821  0.53095  1.0000
  Sn  Sn3       1.0  0.50493  0.52821  0.03095  1.0000
  Sn  Sn4       1.0  0.49507  0.47179  0.53095  1.0000
  Sn  Sn5       1.0  0.06870  0.25116  0.34868  1.0000
  Sn  Sn6       1.0  0.93130  0.74884  0.84868  1.0000
  Sn  Sn7       1.0  0.56870  0.24884  0.34868  1.0000
  Sn  Sn8       1.0  0.43130  0.75116  0.84868  1.0000
  O   O1        1.0  0.02314  0.03230  0.15360  1.0000
  O   O2        1.0  0.97686  0.96770  0.65360  1.0000
  O   O3        1.0  0.52314  0.46770  0.15360  1.0000
  O   O4        1.0  0.47686  0.53230  0.65360  1.0000
  O   O5        1.0  0.11539  0.00350  0.15050  1.0000
  O   O6        1.0  0.88461  0.99650  0.65050  1.0000
  O   O7        1.0  0.61539  0.49650  0.15050  1.0000
  O   O8        1.0  0.38461  0.50350  0.65050  1.0000
  O   O9        1.0  0.07352  0.14678  0.29150  1.0000
  O   O10       1.0  0.92648  0.85322  0.79150  1.0000
  O   O11       1.0  0.57352  0.35322  0.29150  1.0000
  O   O12       1.0  0.42648  0.64678  0.79150  1.0000
  O   O13       1.0  0.02577  0.10190  0.41190  1.0000
  O   O14       1.0  0.97423  0.89810  0.91190  1.0000
  O   O15       1.0  0.52577  0.39810  0.41190  1.0000
  O   O16       1.0  0.47423  0.60190  0.91190  1.0000
  C   C1        1.0  0.07260  0.02170  0.19250  1.0000
  C   C2        1.0  0.92740  0.97830  0.69250  1.0000
  C   C3        1.0  0.57260  0.47830  0.19250  1.0000
  C   C4        1.0  0.42740  0.52170  0.69250  1.0000
  C   C5        1.0  0.07320  0.02800  0.30130  1.0000
  C   C6        1.0  0.92680  0.97200  0.80130  1.0000
  C   C7        1.0  0.57320  0.47200  0.30130  1.0000
  C   C8        1.0  0.42680  0.52800  0.80130  1.0000
  H   H1        1.0  0.04710  0.99380  0.32840  1.0000
  H   H2        1.0  0.95290  0.00620  0.82840  1.0000
  H   H3        1.0  0.54710  0.50620  0.32840  1.0000
  H   H4        1.0  0.45290  0.49380  0.82840  1.0000
  H   H5        1.0  0.11270  0.01830  0.32440  1.0000
  H   H6        1.0  0.88730  0.98170  0.82440  1.0000
  H   H7        1.0  0.61270  0.48170  0.32440  1.0000
  H   H8        1.0  0.38730  0.51830  0.82440  1.0000
  C   C9        1.0  0.05520  0.09650  0.33700  1.0000
  C   C10       1.0  0.94480  0.90350  0.83700  1.0000
  C   C11       1.0  0.55520  0.40350  0.33700  1.0000
  C   C12       1.0  0.44480  0.59650  0.83700  1.0000
  C   C13       1.0  0.91940  0.00830  0.03390  1.0000
  C   C14       1.0  0.08060  0.99170  0.53390  1.0000
  C   C15       1.0  0.41940  0.49170  0.03390  1.0000
  C   C16       1.0  0.58060  0.50830  0.53390  1.0000
  C   C17       1.0  0.90880  0.07790  0.03950  1.0000
  C   C18       1.0  0.09120  0.92210  0.53950  1.0000
  C   C19       1.0  0.40880  0.42210  0.03950  1.0000
  C   C20       1.0  0.59120  0.57790  0.53950  1.0000
  H   H9        1.0  0.94020  0.10790  0.04730  1.0000
  H   H10       1.0  0.05980  0.89210  0.54730  1.0000
  H   H11       1.0  0.44020  0.39210  0.04730  1.0000
  H   H12       1.0  0.55980  0.60790  0.54730  1.0000
  C   C21       1.0  0.85250  0.10340  0.03380  1.0000
  C   C22       1.0  0.14750  0.89660  0.53380  1.0000
  C   C23       1.0  0.35250  0.39660  0.03380  1.0000
  C   C24       1.0  0.64750  0.60340  0.53380  1.0000
  H   H13       1.0  0.84570  0.15040  0.03670  1.0000
  H   H14       1.0  0.15430  0.84960  0.53670  1.0000
  H   H15       1.0  0.34570  0.34960  0.03670  1.0000
  H   H16       1.0  0.65430  0.65040  0.53670  1.0000
  C   C25       1.0  0.80660  0.05890  0.02370  1.0000
  C   C26       1.0  0.19340  0.94110  0.52370  1.0000
  C   C27       1.0  0.30660  0.44110  0.02370  1.0000
  C   C28       1.0  0.69340  0.55890  0.52370  1.0000
  H   H17       1.0  0.76830  0.07560  0.01930  1.0000
  H   H18       1.0  0.23170  0.92440  0.51930  1.0000
  H   H19       1.0  0.26830  0.42440  0.01930  1.0000
  H   H20       1.0  0.73170  0.57560  0.51930  1.0000
  C   C29       1.0  0.81630  0.99130  0.02010  1.0000
  C   C30       1.0  0.18370  0.00870  0.52010  1.0000
  C   C31       1.0  0.31630  0.50870  0.02010  1.0000
  C   C32       1.0  0.68370  0.49130  0.52010  1.0000
  H   H21       1.0  0.78460  0.96150  0.01420  1.0000
  H   H22       1.0  0.21540  0.03850  0.51420  1.0000
  H   H23       1.0  0.28460  0.53850  0.01420  1.0000
  H   H24       1.0  0.71540  0.46150  0.51420  1.0000
  C   C33       1.0  0.87270  0.96510  0.02510  1.0000
  C   C34       1.0  0.12730  0.03490  0.52510  1.0000
  C   C35       1.0  0.37270  0.53490  0.02510  1.0000
  C   C36       1.0  0.62730  0.46510  0.52510  1.0000
  H   H25       1.0  0.87870  0.91800  0.02250  1.0000
  H   H26       1.0  0.12130  0.08200  0.52250  1.0000
  H   H27       1.0  0.37870  0.58200  0.02250  1.0000
  H   H28       1.0  0.62130  0.41800  0.52250  1.0000
  C   C37       1.0  0.06380  0.01610  0.93310  1.0000
  C   C38       1.0  0.93620  0.98390  0.43310  1.0000
  C   C39       1.0  0.56380  0.48390  0.93310  1.0000
  C   C40       1.0  0.43620  0.51610  0.43310  1.0000
  C   C41       1.0  0.08450  0.08210  0.94810  1.0000
  C   C42       1.0  0.91550  0.91790  0.44810  1.0000
  C   C43       1.0  0.58450  0.41790  0.94810  1.0000
  C   C44       1.0  0.41550  0.58210  0.44810  1.0000
  H   H29       1.0  0.07310  0.10600  0.00320  1.0000
  H   H30       1.0  0.92690  0.89400  0.50320  1.0000
  H   H31       1.0  0.57310  0.39400  0.00320  1.0000
  H   H32       1.0  0.42690  0.60600  0.50320  1.0000
  C   C45       1.0  0.12060  0.11150  0.88380  1.0000
  C   C46       1.0  0.87940  0.88850  0.38380  1.0000
  C   C47       1.0  0.62060  0.38850  0.88380  1.0000
  C   C48       1.0  0.37940  0.61150  0.38380  1.0000
  H   H33       1.0  0.13300  0.15630  0.89410  1.0000
  H   H34       1.0  0.86700  0.84370  0.39410  1.0000
  H   H35       1.0  0.63300  0.34370  0.89410  1.0000
  H   H36       1.0  0.36700  0.65630  0.39410  1.0000
  C   C49       1.0  0.13960  0.07750  0.80400  1.0000
  C   C50       1.0  0.86040  0.92250  0.30400  1.0000
  C   C51       1.0  0.63960  0.42250  0.80400  1.0000
  C   C52       1.0  0.36040  0.57750  0.30400  1.0000
  H   H37       1.0  0.16520  0.09850  0.76060  1.0000
  H   H38       1.0  0.83480  0.90150  0.26060  1.0000
  H   H39       1.0  0.66520  0.40150  0.76060  1.0000
  H   H40       1.0  0.33480  0.59850  0.26060  1.0000
  C   C53       1.0  0.12050  0.01250  0.78830  1.0000
  C   C54       1.0  0.87950  0.98750  0.28830  1.0000
  C   C55       1.0  0.62050  0.48750  0.78830  1.0000
  C   C56       1.0  0.37950  0.51250  0.28830  1.0000
  H   H41       1.0  0.13330  0.98840  0.73410  1.0000
  H   H42       1.0  0.86670  0.01160  0.23410  1.0000
  H   H43       1.0  0.63330  0.51160  0.73410  1.0000
  H   H44       1.0  0.36670  0.48840  0.23410  1.0000
  C   C57       1.0  0.08240  0.98220  0.85250  1.0000
  C   C58       1.0  0.91760  0.01780  0.35250  1.0000
  C   C59       1.0  0.58240  0.51780  0.85250  1.0000
  C   C60       1.0  0.41760  0.48220  0.35250  1.0000
  H   H45       1.0  0.06900  0.93800  0.84070  1.0000
  H   H46       1.0  0.93100  0.06200  0.34070  1.0000
  H   H47       1.0  0.56900  0.56200  0.84070  1.0000
  H   H48       1.0  0.43100  0.43800  0.34070  1.0000
  C   C61       1.0  0.02110  0.88150  0.10550  1.0000
  C   C62       1.0  0.97890  0.11850  0.60550  1.0000
  C   C63       1.0  0.52110  0.61850  0.10550  1.0000
  C   C64       1.0  0.47890  0.38150  0.60550  1.0000
  C   C65       1.0  0.99770  0.87300  0.19520  1.0000
  C   C66       1.0  0.00230  0.12700  0.69520  1.0000
  C   C67       1.0  0.49770  0.62700  0.19520  1.0000
  C   C68       1.0  0.50230  0.37300  0.69520  1.0000
  H   H49       1.0  0.97410  0.90720  0.22160  1.0000
  H   H50       1.0  0.02590  0.09280  0.72160  1.0000
  H   H51       1.0  0.47410  0.59280  0.22160  1.0000
  H   H52       1.0  0.52590  0.40720  0.72160  1.0000
  C   C69       1.0  0.00830  0.81550  0.24610  1.0000
  C   C70       1.0  0.99170  0.18450  0.74610  1.0000
  C   C71       1.0  0.50830  0.68450  0.24610  1.0000
  C   C72       1.0  0.49170  0.31550  0.74610  1.0000
  H   H53       1.0  0.99220  0.81050  0.30750  1.0000
  H   H54       1.0  0.00780  0.18950  0.80750  1.0000
  H   H55       1.0  0.49220  0.68950  0.30750  1.0000
  H   H56       1.0  0.50780  0.31050  0.80750  1.0000
  C   C73       1.0  0.04240  0.76450  0.20860  1.0000
  C   C74       1.0  0.95760  0.23550  0.70860  1.0000
  C   C75       1.0  0.54240  0.73550  0.20860  1.0000
  C   C76       1.0  0.45760  0.26450  0.70860  1.0000
  H   H57       1.0  0.05000  0.72510  0.24450  1.0000
  H   H58       1.0  0.95000  0.27490  0.74450  1.0000
  H   H59       1.0  0.55000  0.77490  0.24450  1.0000
  H   H60       1.0  0.45000  0.22510  0.74450  1.0000
  C   C77       1.0  0.06490  0.77170  0.11940  1.0000
  C   C78       1.0  0.93510  0.22830  0.61940  1.0000
  C   C79       1.0  0.56490  0.72830  0.11940  1.0000
  C   C80       1.0  0.43510  0.27170  0.61940  1.0000
  H   H61       1.0  0.08760  0.73670  0.09310  1.0000
  H   H62       1.0  0.91240  0.26330  0.59310  1.0000
  H   H63       1.0  0.58760  0.76330  0.09310  1.0000
  H   H64       1.0  0.41240  0.23670  0.59310  1.0000
  C   C81       1.0  0.05490  0.82970  0.06690  1.0000
  C   C82       1.0  0.94510  0.17030  0.56690  1.0000
  C   C83       1.0  0.55490  0.67030  0.06690  1.0000
  C   C84       1.0  0.44510  0.32970  0.56690  1.0000
  H   H65       1.0  0.07080  0.83420  0.00530  1.0000
  H   H66       1.0  0.92920  0.16580  0.50530  1.0000
  H   H67       1.0  0.57080  0.66580  0.00530  1.0000
  H   H68       1.0  0.42920  0.33420  0.50530  1.0000
  C   C85       1.0  0.12280  0.27650  0.23140  1.0000
  C   C86       1.0  0.87720  0.72350  0.73140  1.0000
  C   C87       1.0  0.62280  0.22350  0.23140  1.0000
  C   C88       1.0  0.37720  0.77650  0.73140  1.0000
  C   C89       1.0  0.10740  0.26240  0.13920  1.0000
  C   C90       1.0  0.89260  0.73760  0.63920  1.0000
  C   C91       1.0  0.60740  0.23760  0.13920  1.0000
  C   C92       1.0  0.39260  0.76240  0.63920  1.0000
  H   H69       1.0  0.07100  0.24240  0.12660  1.0000
  H   H70       1.0  0.92900  0.75760  0.62660  1.0000
  H   H71       1.0  0.57100  0.25760  0.12660  1.0000
  H   H72       1.0  0.42900  0.74240  0.62660  1.0000
  C   C93       1.0  0.14470  0.27700  0.06410  1.0000
  C   C94       1.0  0.85530  0.72300  0.56410  1.0000
  C   C95       1.0  0.64470  0.22300  0.06410  1.0000
  C   C96       1.0  0.35530  0.77700  0.56410  1.0000
  H   H73       1.0  0.13320  0.26790  0.00080  1.0000
  H   H74       1.0  0.86680  0.73210  0.50080  1.0000
  H   H75       1.0  0.63320  0.23210  0.00080  1.0000
  H   H76       1.0  0.36680  0.76790  0.50080  1.0000
  C   C97       1.0  0.19880  0.30480  0.08220  1.0000
  C   C98       1.0  0.80120  0.69520  0.58220  1.0000
  C   C99       1.0  0.69880  0.19520  0.08220  1.0000
  C   C100      1.0  0.30120  0.80480  0.58220  1.0000
  H   H77       1.0  0.22450  0.31430  0.03160  1.0000
  H   H78       1.0  0.77550  0.68570  0.53160  1.0000
  H   H79       1.0  0.72450  0.18570  0.03160  1.0000
  H   H80       1.0  0.27550  0.81430  0.53160  1.0000
  C   C101      1.0  0.21450  0.31850  0.17440  1.0000
  C   C102      1.0  0.78550  0.68150  0.67440  1.0000
  C   C103      1.0  0.71450  0.18150  0.17440  1.0000
  C   C104      1.0  0.28550  0.81850  0.67440  1.0000
  H   H81       1.0  0.25140  0.33710  0.18740  1.0000
  H   H82       1.0  0.74860  0.66290  0.68740  1.0000
  H   H83       1.0  0.75140  0.16290  0.18740  1.0000
  H   H84       1.0  0.24860  0.83710  0.68740  1.0000
  C   C105      1.0  0.17650  0.30510  0.24880  1.0000
  C   C106      1.0  0.82350  0.69490  0.74880  1.0000
  C   C107      1.0  0.67650  0.19490  0.24880  1.0000
  C   C108      1.0  0.32350  0.80510  0.74880  1.0000
  H   H85       1.0  0.18740  0.31560  0.31190  1.0000
  H   H86       1.0  0.81260  0.68440  0.81190  1.0000
  H   H87       1.0  0.68740  0.18440  0.31190  1.0000
  H   H88       1.0  0.31260  0.81560  0.81190  1.0000
  C   C109      1.0  0.12000  0.22760  0.47050  1.0000
  C   C110      1.0  0.88000  0.77240  0.97050  1.0000
  C   C111      1.0  0.62000  0.27240  0.47050  1.0000
  C   C112      1.0  0.38000  0.72760  0.97050  1.0000
  C   C113      1.0  0.09990  0.23550  0.56230  1.0000
  C   C114      1.0  0.90010  0.76450  0.06230  1.0000
  C   C115      1.0  0.59990  0.26450  0.56230  1.0000
  C   C116      1.0  0.40010  0.73550  0.06230  1.0000
  H   H89       1.0  0.06120  0.24890  0.57290  1.0000
  H   H90       1.0  0.93880  0.75110  0.07290  1.0000
  H   H91       1.0  0.56120  0.25110  0.57290  1.0000
  H   H92       1.0  0.43880  0.74890  0.07290  1.0000
  C   C117      1.0  0.13560  0.22400  0.63820  1.0000
  C   C118      1.0  0.86440  0.77600  0.13820  1.0000
  C   C119      1.0  0.63560  0.27600  0.63820  1.0000
  C   C120      1.0  0.36440  0.72400  0.13820  1.0000
  H   H93       1.0  0.12080  0.22840  0.70070  1.0000
  H   H94       1.0  0.87920  0.77160  0.20070  1.0000
  H   H95       1.0  0.62080  0.27160  0.70070  1.0000
  H   H96       1.0  0.37920  0.72840  0.20070  1.0000
  C   C121      1.0  0.19180  0.20660  0.62540  1.0000
  C   C122      1.0  0.80820  0.79340  0.12540  1.0000
  C   C123      1.0  0.69180  0.29340  0.62540  1.0000
  C   C124      1.0  0.30820  0.70660  0.12540  1.0000
  H   H97       1.0  0.21630  0.20030  0.67860  1.0000
  H   H98       1.0  0.78370  0.79970  0.17860  1.0000
  H   H99       1.0  0.71630  0.29970  0.67860  1.0000
  H   H100      1.0  0.28370  0.70030  0.17860  1.0000
  C   C125      1.0  0.21320  0.19810  0.53440  1.0000
  C   C126      1.0  0.78680  0.80190  0.03440  1.0000
  C   C127      1.0  0.71320  0.30190  0.53440  1.0000
  C   C128      1.0  0.28680  0.69810  0.03440  1.0000
  H   H101      1.0  0.25240  0.18630  0.52460  1.0000
  H   H102      1.0  0.74760  0.81370  0.02460  1.0000
  H   H103      1.0  0.75240  0.31370  0.52460  1.0000
  H   H104      1.0  0.24760  0.68630  0.02460  1.0000
  C   C129      1.0  0.17620  0.20730  0.45710  1.0000
  C   C130      1.0  0.82380  0.79270  0.95710  1.0000
  C   C131      1.0  0.67620  0.29270  0.45710  1.0000
  C   C132      1.0  0.32380  0.70730  0.95710  1.0000
  H   H105      1.0  0.19000  0.19940  0.39470  1.0000
  H   H106      1.0  0.81000  0.80060  0.89470  1.0000
  H   H107      1.0  0.69000  0.30060  0.39470  1.0000
  H   H108      1.0  0.31000  0.69940  0.89470  1.0000
  C   C133      1.0  0.97576  0.25160  0.34710  1.0000
  C   C134      1.0  0.02424  0.74840  0.84710  1.0000
  C   C135      1.0  0.47576  0.24840  0.34710  1.0000
  C   C136      1.0  0.52424  0.75160  0.84710  1.0000
  C   C137      1.0  0.94580  0.30150  0.39570  1.0000
  C   C138      1.0  0.05420  0.69850  0.89570  1.0000
  C   C139      1.0  0.44580  0.19850  0.39570  1.0000
  C   C140      1.0  0.55420  0.80150  0.89570  1.0000
  H   H109      1.0  0.96650  0.33370  0.43190  1.0000
  H   H110      1.0  0.03350  0.66630  0.93190  1.0000
  H   H111      1.0  0.46650  0.16630  0.43190  1.0000
  H   H112      1.0  0.53350  0.83370  0.93190  1.0000
  C   C141      1.0  0.88640  0.30470  0.39160  1.0000
  C   C142      1.0  0.11360  0.69530  0.89160  1.0000
  C   C143      1.0  0.38640  0.19530  0.39160  1.0000
  C   C144      1.0  0.61360  0.80470  0.89160  1.0000
  H   H113      1.0  0.86620  0.33820  0.42580  1.0000
  H   H114      1.0  0.13380  0.66180  0.92580  1.0000
  H   H115      1.0  0.36620  0.16180  0.42580  1.0000
  H   H116      1.0  0.63380  0.83820  0.92580  1.0000
  C   C145      1.0  0.85690  0.25860  0.33740  1.0000
  C   C146      1.0  0.14310  0.74140  0.83740  1.0000
  C   C147      1.0  0.35690  0.24140  0.33740  1.0000
  C   C148      1.0  0.64310  0.75860  0.83740  1.0000
  H   H117      1.0  0.81610  0.26150  0.33270  1.0000
  H   H118      1.0  0.18390  0.73850  0.83270  1.0000
  H   H119      1.0  0.31610  0.23850  0.33270  1.0000
  H   H120      1.0  0.68390  0.76150  0.83270  1.0000
  C   C149      1.0  0.88590  0.20790  0.28920  1.0000
  C   C150      1.0  0.11410  0.79210  0.78920  1.0000
  C   C151      1.0  0.38590  0.29210  0.28920  1.0000
  C   C152      1.0  0.61410  0.70790  0.78920  1.0000
  H   H121      1.0  0.86520  0.17550  0.25360  1.0000
  H   H122      1.0  0.13480  0.82450  0.75360  1.0000
  H   H123      1.0  0.36520  0.32450  0.25360  1.0000
  H   H124      1.0  0.63480  0.67550  0.75360  1.0000
  C   C153      1.0  0.94570  0.20540  0.29400  1.0000
  C   C154      1.0  0.05430  0.79460  0.79400  1.0000
  C   C155      1.0  0.44570  0.29460  0.29400  1.0000
  C   C156      1.0  0.55430  0.70540  0.79400  1.0000
  H   H125      1.0  0.96600  0.17150  0.26040  1.0000
  H   H126      1.0  0.03400  0.82850  0.76040  1.0000
  H   H127      1.0  0.46600  0.32850  0.26040  1.0000
  H   H128      1.0  0.53400  0.67150  0.76040  1.0000
  Sn  Sn9       1.0  0.00081  0.52921  0.65523  1.0000
  Sn  Sn10      1.0  0.99920  0.47079  0.15523  1.0000
  Sn  Sn11      1.0  0.50080  0.97079  0.65523  1.0000
  Sn  Sn12      1.0  0.49919  0.02921  0.15523  1.0000
  O   O17       1.0  0.07356  0.35737  0.40170  1.0000
  O   O18       1.0  0.92644  0.64263  0.90170  1.0000
  O   O19       1.0  0.57356  0.14263  0.40170  1.0000
  O   O20       1.0  0.42644  0.85737  0.90170  1.0000
  O   O21       1.0  0.02933  0.39956  0.27580  1.0000
  O   O22       1.0  0.97067  0.60044  0.77580  1.0000
  O   O23       1.0  0.52933  0.10044  0.27580  1.0000
  O   O24       1.0  0.47067  0.89956  0.77580  1.0000
  O   O25       1.0  0.02052  0.47016  0.52740  1.0000
  O   O26       1.0  0.97948  0.52984  0.02740  1.0000
  O   O27       1.0  0.52052  0.02984  0.52740  1.0000
  O   O28       1.0  0.47948  0.97016  0.02740  1.0000
  O   O29       1.0  0.10951  0.51230  0.53640  1.0000
  O   O30       1.0  0.89049  0.48770  0.03640  1.0000
  O   O31       1.0  0.60951  0.98770  0.53640  1.0000
  O   O32       1.0  0.39049  0.01230  0.03640  1.0000
  C   C157      1.0  0.05700  0.40640  0.35150  1.0000
  C   C158      1.0  0.94300  0.59360  0.85150  1.0000
  C   C159      1.0  0.55700  0.09360  0.35150  1.0000
  C   C160      1.0  0.44300  0.90640  0.85150  1.0000
  C   C161      1.0  0.07410  0.47540  0.38600  1.0000
  C   C162      1.0  0.92590  0.52460  0.88600  1.0000
  C   C163      1.0  0.57410  0.02460  0.38600  1.0000
  C   C164      1.0  0.42590  0.97540  0.88600  1.0000
  H   H129      1.0  0.04940  0.50890  0.35400  1.0000
  H   H130      1.0  0.95060  0.49110  0.85400  1.0000
  H   H131      1.0  0.54940  0.99110  0.35400  1.0000
  H   H132      1.0  0.45060  0.00890  0.85400  1.0000
  H   H133      1.0  0.11440  0.48410  0.36630  1.0000
  H   H134      1.0  0.88560  0.51590  0.86630  1.0000
  H   H135      1.0  0.61440  0.01590  0.36630  1.0000
  H   H136      1.0  0.38560  0.98410  0.86630  1.0000
  C   C165      1.0  0.06960  0.48590  0.49200  1.0000
  C   C166      1.0  0.93040  0.51410  0.99200  1.0000
  C   C167      1.0  0.56960  0.01410  0.49200  1.0000
  C   C168      1.0  0.43040  0.98590  0.99200  1.0000
  C   C169      1.0  0.01390  0.62070  0.58120  1.0000
  C   C170      1.0  0.98610  0.37930  0.08120  1.0000
  C   C171      1.0  0.51390  0.87930  0.58120  1.0000
  C   C172      1.0  0.48610  0.12070  0.08120  1.0000
  C   C173      1.0  0.04290  0.67440  0.61940  1.0000
  C   C174      1.0  0.95710  0.32560  0.11940  1.0000
  C   C175      1.0  0.54290  0.82560  0.61940  1.0000
  C   C176      1.0  0.45710  0.17440  0.11940  1.0000
  H   H137      1.0  0.05840  0.67110  0.68150  1.0000
  H   H138      1.0  0.94160  0.32890  0.18150  1.0000
  H   H139      1.0  0.55840  0.82890  0.68150  1.0000
  H   H140      1.0  0.44160  0.17110  0.18150  1.0000
  C   C177      1.0  0.05000  0.73370  0.56860  1.0000
  C   C178      1.0  0.95000  0.26630  0.06860  1.0000
  C   C179      1.0  0.55000  0.76630  0.56860  1.0000
  C   C180      1.0  0.45000  0.23370  0.06860  1.0000
  H   H141      1.0  0.07030  0.77030  0.59590  1.0000
  H   H142      1.0  0.92970  0.22970  0.09590  1.0000
  H   H143      1.0  0.57030  0.72970  0.59590  1.0000
  H   H144      1.0  0.42970  0.27030  0.09590  1.0000
  C   C181      1.0  0.02770  0.73930  0.47980  1.0000
  C   C182      1.0  0.97230  0.26070  0.97980  1.0000
  C   C183      1.0  0.52770  0.76070  0.47980  1.0000
  C   C184      1.0  0.47230  0.23930  0.97980  1.0000
  H   H145      1.0  0.03340  0.77970  0.44540  1.0000
  H   H146      1.0  0.96660  0.22030  0.94540  1.0000
  H   H147      1.0  0.53340  0.72030  0.44540  1.0000
  H   H148      1.0  0.46660  0.27970  0.94540  1.0000
  C   C185      1.0  0.99720  0.68770  0.43860  1.0000
  C   C186      1.0  0.00280  0.31230  0.93860  1.0000
  C   C187      1.0  0.49720  0.81230  0.43860  1.0000
  C   C188      1.0  0.50280  0.18770  0.93860  1.0000
  H   H149      1.0  0.98050  0.69310  0.37760  1.0000
  H   H150      1.0  0.01950  0.30690  0.87760  1.0000
  H   H151      1.0  0.48050  0.80690  0.37760  1.0000
  H   H152      1.0  0.51950  0.19310  0.87760  1.0000
  C   C189      1.0  0.99100  0.62710  0.48810  1.0000
  C   C190      1.0  0.00900  0.37290  0.98810  1.0000
  C   C191      1.0  0.49100  0.87290  0.48810  1.0000
  C   C192      1.0  0.50900  0.12710  0.98810  1.0000
  H   H153      1.0  0.97160  0.59030  0.45940  1.0000
  H   H154      1.0  0.02840  0.40970  0.95940  1.0000
  H   H155      1.0  0.47160  0.90970  0.45940  1.0000
  H   H156      1.0  0.52840  0.09030  0.95940  1.0000
  C   C193      1.0  0.06130  0.48300  0.74850  1.0000
  C   C194      1.0  0.93870  0.51700  0.24850  1.0000
  C   C195      1.0  0.56130  0.01700  0.74850  1.0000
  C   C196      1.0  0.43870  0.98300  0.24850  1.0000
  C   C197      1.0  0.08170  0.51600  0.82920  1.0000
  C   C198      1.0  0.91830  0.48400  0.32920  1.0000
  C   C199      1.0  0.58170  0.98400  0.82920  1.0000
  C   C200      1.0  0.41830  0.01600  0.32920  1.0000
  H   H157      1.0  0.06750  0.55960  0.84350  1.0000
  H   H158      1.0  0.93250  0.44040  0.34350  1.0000
  H   H159      1.0  0.56750  0.94040  0.84350  1.0000
  H   H160      1.0  0.43250  0.05960  0.34350  1.0000
  C   C201      1.0  0.12170  0.48710  0.88840  1.0000
  C   C202      1.0  0.87830  0.51290  0.38840  1.0000
  C   C203      1.0  0.62170  0.01290  0.88840  1.0000
  C   C204      1.0  0.37830  0.98710  0.38840  1.0000
  H   H161      1.0  0.13490  0.51010  0.94330  1.0000
  H   H162      1.0  0.86510  0.48990  0.44330  1.0000
  H   H163      1.0  0.63490  0.98990  0.94330  1.0000
  H   H164      1.0  0.36510  0.01010  0.44330  1.0000
  C   C205      1.0  0.14270  0.42330  0.86620  1.0000
  C   C206      1.0  0.85730  0.57670  0.36620  1.0000
  C   C207      1.0  0.64270  0.07670  0.86620  1.0000
  C   C208      1.0  0.35730  0.92330  0.36620  1.0000
  H   H165      1.0  0.17030  0.40280  0.90670  1.0000
  H   H166      1.0  0.82970  0.59720  0.40670  1.0000
  H   H167      1.0  0.67030  0.09720  0.90670  1.0000
  H   H168      1.0  0.32970  0.90280  0.40670  1.0000
  C   C209      1.0  0.12450  0.38990  0.78800  1.0000
  C   C210      1.0  0.87550  0.61010  0.28800  1.0000
  C   C211      1.0  0.62450  0.11010  0.78800  1.0000
  C   C212      1.0  0.37550  0.88990  0.28800  1.0000
  H   H169      1.0  0.13930  0.34660  0.77380  1.0000
  H   H170      1.0  0.86070  0.65340  0.27380  1.0000
  H   H171      1.0  0.63930  0.15340  0.77380  1.0000
  H   H172      1.0  0.36070  0.84660  0.27380  1.0000
  C   C213      1.0  0.08330  0.41990  0.72770  1.0000
  C   C214      1.0  0.91670  0.58010  0.22770  1.0000
  C   C215      1.0  0.58330  0.08010  0.72770  1.0000
  C   C216      1.0  0.41670  0.91990  0.22770  1.0000
  H   H173      1.0  0.07070  0.39690  0.67260  1.0000
  H   H174      1.0  0.92930  0.60310  0.17260  1.0000
  H   H175      1.0  0.57070  0.10310  0.67260  1.0000
  H   H176      1.0  0.42930  0.89690  0.17260  1.0000
  C   C217      1.0  0.91600  0.48780  0.65140  1.0000
  C   C218      1.0  0.08400  0.51220  0.15140  1.0000
  C   C219      1.0  0.41600  0.01220  0.65140  1.0000
  C   C220      1.0  0.58400  0.98780  0.15140  1.0000
  C   C221      1.0  0.86810  0.52800  0.66370  1.0000
  C   C222      1.0  0.13190  0.47200  0.16370  1.0000
  C   C223      1.0  0.36810  0.97200  0.66370  1.0000
  C   C224      1.0  0.63190  0.02800  0.16370  1.0000
  H   H177      1.0  0.87350  0.57500  0.67080  1.0000
  H   H178      1.0  0.12650  0.42500  0.17080  1.0000
  H   H179      1.0  0.37350  0.92500  0.67080  1.0000
  H   H180      1.0  0.62650  0.07500  0.17080  1.0000
  C   C225      1.0  0.81320  0.50300  0.66590  1.0000
  C   C226      1.0  0.18680  0.49700  0.16590  1.0000
  C   C227      1.0  0.31320  0.99700  0.66590  1.0000
  C   C228      1.0  0.68680  0.00300  0.16590  1.0000
  H   H181      1.0  0.78140  0.53240  0.67380  1.0000
  H   H182      1.0  0.21860  0.46760  0.17380  1.0000
  H   H183      1.0  0.28140  0.96760  0.67380  1.0000
  H   H184      1.0  0.71860  0.03240  0.17380  1.0000
  C   C229      1.0  0.80430  0.43480  0.65660  1.0000
  C   C230      1.0  0.19570  0.56520  0.15660  1.0000
  C   C231      1.0  0.30430  0.06520  0.65660  1.0000
  C   C232      1.0  0.69570  0.93480  0.15660  1.0000
  H   H185      1.0  0.76640  0.41680  0.65980  1.0000
  H   H186      1.0  0.23360  0.58320  0.15980  1.0000
  H   H187      1.0  0.26640  0.08320  0.65980  1.0000
  H   H188      1.0  0.73360  0.91680  0.15980  1.0000
  C   C233      1.0  0.85130  0.39300  0.64260  1.0000
  C   C234      1.0  0.14870  0.60700  0.14260  1.0000
  C   C235      1.0  0.35130  0.10700  0.64260  1.0000
  C   C236      1.0  0.64870  0.89300  0.14260  1.0000
  H   H189      1.0  0.84530  0.34630  0.63370  1.0000
  H   H190      1.0  0.15470  0.65370  0.13370  1.0000
  H   H191      1.0  0.34530  0.15370  0.63370  1.0000
  H   H192      1.0  0.65470  0.84630  0.13370  1.0000
  C   C237      1.0  0.90700  0.41860  0.64130  1.0000
  C   C238      1.0  0.09300  0.58140  0.14130  1.0000
  C   C239      1.0  0.40700  0.08140  0.64130  1.0000
  C   C240      1.0  0.59300  0.91860  0.14130  1.0000
  H   H193      1.0  0.93900  0.38930  0.63360  1.0000
  H   H194      1.0  0.06100  0.61070  0.13360  1.0000
  H   H195      1.0  0.43900  0.11070  0.63360  1.0000
  H   H196      1.0  0.56100  0.88930  0.13360  1.0000
