data_image0
_chemical_formula_structural       Zn2N4O16C4H4C4H4C4H4C16
_chemical_formula_sum              "Zn2 N4 O16 C28 H12"
_cell_length_a       7.28
_cell_length_b       11.6181
_cell_length_c       10.86
_cell_angle_alpha    90
_cell_angle_beta     103.721
_cell_angle_gamma    90

_space_group_name_H-M_alt    "P 1"
_space_group_IT_number       1

loop_
  _space_group_symop_operation_xyz
  'x, y, z'

loop_
  _atom_site_type_symbol
  _atom_site_label
  _atom_site_symmetry_multiplicity
  _atom_site_fract_x
  _atom_site_fract_y
  _atom_site_fract_z
  _atom_site_occupancy
  Zn  Zn1       1.0  0.00000  0.00000  0.50000  1.0000
  Zn  Zn2       1.0  0.50000  0.50000  0.00000  1.0000
  N   N1        1.0  0.23872  0.09448  0.57772  1.0000
  N   N2        1.0  0.26128  0.59448  0.92228  1.0000
  N   N3        1.0  0.76128  0.90552  0.42228  1.0000
  N   N4        1.0  0.73872  0.40552  0.07772  1.0000
  O   O1        1.0  0.33608  0.34165  0.90738  1.0000
  O   O2        1.0  0.16392  0.84165  0.59262  1.0000
  O   O3        1.0  0.66392  0.65835  0.09262  1.0000
  O   O4        1.0  0.83608  0.15835  0.40738  1.0000
  O   O5        1.0  0.50448  0.18594  0.98422  1.0000
  O   O6        1.0  0.99552  0.68594  0.51578  1.0000
  O   O7        1.0  0.49552  0.81406  0.01578  1.0000
  O   O8        1.0  0.00448  0.31406  0.48422  1.0000
  O   O9        1.0  0.95081  0.03453  0.67603  1.0000
  O   O10       1.0  0.54919  0.53453  0.82397  1.0000
  O   O11       1.0  0.04919  0.96547  0.32397  1.0000
  O   O12       1.0  0.45081  0.46547  0.17603  1.0000
  O   O13       1.0  0.08853  0.10920  0.86374  1.0000
  O   O14       1.0  0.41147  0.60920  0.63626  1.0000
  O   O15       1.0  0.91147  0.89080  0.13626  1.0000
  O   O16       1.0  0.58853  0.39080  0.36374  1.0000
  C   C1        1.0  0.37447  0.12570  0.52071  1.0000
  C   C2        1.0  0.12553  0.62570  0.97929  1.0000
  C   C3        1.0  0.62553  0.87430  0.47929  1.0000
  C   C4        1.0  0.87447  0.37430  0.02071  1.0000
  H   H1        1.0  0.36880  0.09990  0.43880  1.0000
  H   H2        1.0  0.13120  0.59990  0.06120  1.0000
  H   H3        1.0  0.63120  0.90010  0.56120  1.0000
  H   H4        1.0  0.86880  0.40010  0.93880  1.0000
  C   C5        1.0  0.52360  0.19547  0.58010  1.0000
  C   C6        1.0  0.97640  0.69547  0.91990  1.0000
  C   C7        1.0  0.47640  0.80453  0.41990  1.0000
  C   C8        1.0  0.02360  0.30453  0.08010  1.0000
  H   H5        1.0  0.61750  0.21590  0.53920  1.0000
  H   H6        1.0  0.88250  0.71590  0.96080  1.0000
  H   H7        1.0  0.38250  0.78410  0.46080  1.0000
  H   H8        1.0  0.11750  0.28410  0.03920  1.0000
  C   C9        1.0  0.52980  0.23404  0.70161  1.0000
  C   C10       1.0  0.97020  0.73404  0.79839  1.0000
  C   C11       1.0  0.47020  0.76596  0.29839  1.0000
  C   C12       1.0  0.02980  0.26596  0.20161  1.0000
  H   H9        1.0  0.62750  0.28200  0.74280  1.0000
  H   H10       1.0  0.87250  0.78200  0.75720  1.0000
  H   H11       1.0  0.37250  0.71800  0.25720  1.0000
  H   H12       1.0  0.12750  0.21800  0.24280  1.0000
  C   C13       1.0  0.38917  0.20088  0.76245  1.0000
  C   C14       1.0  0.11083  0.70088  0.73755  1.0000
  C   C15       1.0  0.61083  0.79912  0.23755  1.0000
  C   C16       1.0  0.88917  0.29912  0.26245  1.0000
  C   C17       1.0  0.40750  0.24528  0.89637  1.0000
  C   C18       1.0  0.09250  0.74528  0.60363  1.0000
  C   C19       1.0  0.59250  0.75472  0.10363  1.0000
  C   C20       1.0  0.90750  0.25472  0.39637  1.0000
  C   C21       1.0  0.24515  0.13005  0.69667  1.0000
  C   C22       1.0  0.25485  0.63005  0.80333  1.0000
  C   C23       1.0  0.75485  0.86995  0.30333  1.0000
  C   C24       1.0  0.74515  0.36995  0.19667  1.0000
  C   C25       1.0  0.08184  0.08793  0.75007  1.0000
  C   C26       1.0  0.41816  0.58793  0.74993  1.0000
  C   C27       1.0  0.91816  0.91207  0.24993  1.0000
  C   C28       1.0  0.58184  0.41207  0.25007  1.0000
