data_image0
_chemical_formula_structural       Cu4Mn4O24N8C20H4C8H4C4H4C8H4O8C4
_chemical_formula_sum              "Cu4 Mn4 O32 N8 C44 H16"
_cell_length_a       9.7093
_cell_length_b       16.5851
_cell_length_c       18.1758
_cell_angle_alpha    90
_cell_angle_beta     90.5
_cell_angle_gamma    90

_space_group_name_H-M_alt    "P 1"
_space_group_IT_number       1

loop_
  _space_group_symop_operation_xyz
  'x, y, z'

loop_
  _atom_site_type_symbol
  _atom_site_label
  _atom_site_symmetry_multiplicity
  _atom_site_fract_x
  _atom_site_fract_y
  _atom_site_fract_z
  _atom_site_occupancy
  Cu  Cu1       1.0  0.72892  0.26245  0.29513  1.0000
  Cu  Cu2       1.0  0.77108  0.76245  0.20487  1.0000
  Cu  Cu3       1.0  0.27108  0.73755  0.70487  1.0000
  Cu  Cu4       1.0  0.22892  0.23755  0.79513  1.0000
  Mn  Mn1       1.0  0.52625  0.33337  0.02585  1.0000
  Mn  Mn2       1.0  0.97375  0.83337  0.47415  1.0000
  Mn  Mn3       1.0  0.47375  0.66663  0.97415  1.0000
  Mn  Mn4       1.0  0.02625  0.16663  0.52585  1.0000
  O   O1        1.0  0.47760  0.26706  0.12614  1.0000
  O   O2        1.0  0.02240  0.76706  0.37386  1.0000
  O   O3        1.0  0.52240  0.73294  0.87386  1.0000
  O   O4        1.0  0.97760  0.23294  0.62614  1.0000
  O   O5        1.0  0.47020  0.44553  0.08087  1.0000
  O   O6        1.0  0.02980  0.94553  0.41913  1.0000
  O   O7        1.0  0.52980  0.55447  0.91913  1.0000
  O   O8        1.0  0.97020  0.05447  0.58087  1.0000
  O   O9        1.0  0.72560  0.32526  0.08303  1.0000
  O   O10       1.0  0.77440  0.82526  0.41697  1.0000
  O   O11       1.0  0.27440  0.67474  0.91697  1.0000
  O   O12       1.0  0.22560  0.17474  0.58303  1.0000
  O   O13       1.0  0.55590  0.24824  0.24022  1.0000
  O   O14       1.0  0.94410  0.74824  0.25978  1.0000
  O   O15       1.0  0.44410  0.75176  0.75978  1.0000
  O   O16       1.0  0.05590  0.25176  0.74022  1.0000
  O   O17       1.0  0.69180  0.22464  0.39414  1.0000
  O   O18       1.0  0.80820  0.72464  0.10586  1.0000
  O   O19       1.0  0.30820  0.77536  0.60586  1.0000
  O   O20       1.0  0.19180  0.27536  0.89414  1.0000
  O   O21       1.0  0.04440  0.25483  0.43521  1.0000
  O   O22       1.0  0.45560  0.75483  0.06479  1.0000
  O   O23       1.0  0.95560  0.74517  0.56479  1.0000
  O   O24       1.0  0.54440  0.24517  0.93521  1.0000
  N   N1        1.0  0.80030  0.30162  0.20386  1.0000
  N   N2        1.0  0.69970  0.80162  0.29614  1.0000
  N   N3        1.0  0.19970  0.69838  0.79614  1.0000
  N   N4        1.0  0.30030  0.19838  0.70386  1.0000
  N   N5        1.0  0.91300  0.27987  0.33029  1.0000
  N   N6        1.0  0.58700  0.77987  0.16971  1.0000
  N   N7        1.0  0.08700  0.72013  0.66971  1.0000
  N   N8        1.0  0.41300  0.22013  0.83029  1.0000
  C   C1        1.0  0.94140  0.32128  0.20610  1.0000
  C   C2        1.0  0.55860  0.82128  0.29390  1.0000
  C   C3        1.0  0.05860  0.67872  0.79390  1.0000
  C   C4        1.0  0.44140  0.17872  0.70610  1.0000
  C   C5        1.0  0.71170  0.30368  0.14849  1.0000
  C   C6        1.0  0.78830  0.80368  0.35151  1.0000
  C   C7        1.0  0.28830  0.69632  0.85151  1.0000
  C   C8        1.0  0.21170  0.19632  0.64849  1.0000
  C   C9        1.0  0.56940  0.27040  0.17346  1.0000
  C   C10       1.0  0.93060  0.77040  0.32654  1.0000
  C   C11       1.0  0.43060  0.72960  0.82654  1.0000
  C   C12       1.0  0.06940  0.22960  0.67346  1.0000
  C   C13       1.0  0.80240  0.22090  0.43221  1.0000
  C   C14       1.0  0.69760  0.72090  0.06779  1.0000
  C   C15       1.0  0.19760  0.77910  0.56779  1.0000
  C   C16       1.0  0.30240  0.27910  0.93221  1.0000
  C   C17       1.0  0.22250  0.34479  0.22450  1.0000
  C   C18       1.0  0.27750  0.84479  0.27550  1.0000
  C   C19       1.0  0.77750  0.65521  0.77550  1.0000
  C   C20       1.0  0.72250  0.15521  0.72450  1.0000
  H   H1        1.0  0.31920  0.35160  0.23000  1.0000
  H   H2        1.0  0.18080  0.85160  0.27000  1.0000
  H   H3        1.0  0.68080  0.64840  0.77000  1.0000
  H   H4        1.0  0.81920  0.14840  0.73000  1.0000
  C   C21       1.0  0.00430  0.30826  0.27622  1.0000
  C   C22       1.0  0.49570  0.80826  0.22378  1.0000
  C   C23       1.0  0.99570  0.69174  0.72378  1.0000
  C   C24       1.0  0.50430  0.19174  0.77622  1.0000
  C   C25       1.0  0.14480  0.32001  0.28505  1.0000
  C   C26       1.0  0.35520  0.82001  0.21495  1.0000
  C   C27       1.0  0.85520  0.67999  0.71495  1.0000
  C   C28       1.0  0.64480  0.17999  0.78505  1.0000
  H   H5        1.0  0.18780  0.31140  0.33150  1.0000
  H   H6        1.0  0.31220  0.81140  0.16850  1.0000
  H   H7        1.0  0.81220  0.68860  0.66850  1.0000
  H   H8        1.0  0.68780  0.18860  0.83150  1.0000
  C   C29       1.0  0.02040  0.34896  0.14747  1.0000
  C   C30       1.0  0.47960  0.84896  0.35253  1.0000
  C   C31       1.0  0.97960  0.65104  0.85253  1.0000
  C   C32       1.0  0.52040  0.15104  0.64747  1.0000
  H   H9        1.0  0.97820  0.36050  0.10130  1.0000
  H   H10       1.0  0.52180  0.86050  0.39870  1.0000
  H   H11       1.0  0.02180  0.63950  0.89870  1.0000
  H   H12       1.0  0.47820  0.13950  0.60130  1.0000
  C   C33       1.0  0.93530  0.25550  0.39782  1.0000
  C   C34       1.0  0.56470  0.75550  0.10218  1.0000
  C   C35       1.0  0.06470  0.74450  0.60218  1.0000
  C   C36       1.0  0.43530  0.24450  0.89782  1.0000
  C   C37       1.0  0.16090  0.35940  0.15720  1.0000
  C   C38       1.0  0.33910  0.85940  0.34280  1.0000
  C   C39       1.0  0.83910  0.64060  0.84280  1.0000
  C   C40       1.0  0.66090  0.14060  0.65720  1.0000
  H   H13       1.0  0.21540  0.37680  0.11710  1.0000
  H   H14       1.0  0.28460  0.87680  0.38290  1.0000
  H   H15       1.0  0.78460  0.62320  0.88290  1.0000
  H   H16       1.0  0.71540  0.12320  0.61710  1.0000
  O   O25       1.0  0.44720  0.57750  0.05887  1.0000
  O   O26       1.0  0.05280  0.07750  0.44113  1.0000
  O   O27       1.0  0.55280  0.42250  0.94113  1.0000
  O   O28       1.0  0.94720  0.92250  0.55887  1.0000
  O   O29       1.0  0.81130  0.19090  0.49463  1.0000
  O   O30       1.0  0.68870  0.69090  0.00537  1.0000
  O   O31       1.0  0.18870  0.80910  0.50537  1.0000
  O   O32       1.0  0.31130  0.30910  0.99463  1.0000
  C   C41       1.0  0.47570  0.50640  0.04056  1.0000
  C   C42       1.0  0.02430  0.00640  0.45944  1.0000
  C   C43       1.0  0.52430  0.49360  0.95944  1.0000
  C   C44       1.0  0.97570  0.99360  0.54056  1.0000
