data_image0
_chemical_formula_structural       U2O16C2O2C6H2O2C6H2C2H2C10H2C2H2C2H2C6H2C2H2C2H2C2H2C4H2C2H2U2O8C8H2C4H2C2H2C4H2C2H2C2H2O2C2O2
_chemical_formula_sum              "U4 O32 C72 H36"
_cell_length_a       11.037
_cell_length_b       15.126
_cell_length_c       15.66
_cell_angle_alpha    62.05
_cell_angle_beta     72.26
_cell_angle_gamma    82.05

_space_group_name_H-M_alt    "P 1"
_space_group_IT_number       1

loop_
  _space_group_symop_operation_xyz
  'x, y, z'

loop_
  _atom_site_type_symbol
  _atom_site_label
  _atom_site_symmetry_multiplicity
  _atom_site_fract_x
  _atom_site_fract_y
  _atom_site_fract_z
  _atom_site_occupancy
  U   U1        1.0  0.15259  0.12620  0.68969  1.0000
  U   U2        1.0  0.84741  0.87380  0.31031  1.0000
  O   O1        1.0  0.29820  0.02290  0.79050  1.0000
  O   O2        1.0  0.70180  0.97710  0.20950  1.0000
  O   O3        1.0  0.42830  0.58180  0.19130  1.0000
  O   O4        1.0  0.57170  0.41820  0.80870  1.0000
  O   O5        1.0  0.09590  0.00500  0.87210  1.0000
  O   O6        1.0  0.90410  0.99500  0.12790  1.0000
  O   O7        1.0  0.22670  0.56490  0.27410  1.0000
  O   O8        1.0  0.77330  0.43510  0.72590  1.0000
  O   O9        1.0  0.15810  0.22270  0.72160  1.0000
  O   O10       1.0  0.84190  0.77730  0.27840  1.0000
  O   O11       1.0  0.14690  0.02660  0.66210  1.0000
  O   O12       1.0  0.85310  0.97340  0.33790  1.0000
  O   O13       1.0  0.44490  0.31760  0.50000  1.0000
  O   O14       1.0  0.55510  0.68240  0.50000  1.0000
  O   O15       1.0  0.93410  0.12640  0.73840  1.0000
  O   O16       1.0  0.06590  0.87360  0.26160  1.0000
  C   C1        1.0  0.44740  0.22540  0.55460  1.0000
  C   C2        1.0  0.55260  0.77460  0.44540  1.0000
  O   O17       1.0  0.35710  0.16700  0.58140  1.0000
  O   O18       1.0  0.64290  0.83300  0.41860  1.0000
  C   C3        1.0  0.20880  0.97320  0.86660  1.0000
  C   C4        1.0  0.79120  0.02680  0.13340  1.0000
  C   C5        1.0  0.70120  0.04650  0.67070  1.0000
  C   C6        1.0  0.29880  0.95350  0.32930  1.0000
  C   C7        1.0  0.74930  0.94900  0.69000  1.0000
  C   C8        1.0  0.25070  0.05100  0.31000  1.0000
  H   H1        1.0  0.80950  0.92270  0.72620  1.0000
  H   H2        1.0  0.19050  0.07730  0.27380  1.0000
  O   O19       1.0  0.81200  0.99110  0.84000  1.0000
  O   O20       1.0  0.18800  0.00890  0.16000  1.0000
  C   C9        1.0  0.75220  0.11100  0.69490  1.0000
  C   C10       1.0  0.24780  0.88900  0.30510  1.0000
  C   C11       1.0  0.31490  0.80380  0.92500  1.0000
  C   C12       1.0  0.68510  0.19620  0.07500  1.0000
  C   C13       1.0  0.70930  0.89370  0.65670  1.0000
  C   C14       1.0  0.29070  0.10630  0.34330  1.0000
  H   H3        1.0  0.74440  0.83090  0.66830  1.0000
  H   H4        1.0  0.25560  0.16910  0.33170  1.0000
  C   C15       1.0  0.61670  0.92880  0.60570  1.0000
  C   C16       1.0  0.38330  0.07120  0.39430  1.0000
  H   H5        1.0  0.58980  0.88940  0.58370  1.0000
  H   H6        1.0  0.41020  0.11060  0.41630  1.0000
  C   C17       1.0  0.23530  0.87540  0.94910  1.0000
  C   C18       1.0  0.76470  0.12460  0.05090  1.0000
  C   C19       1.0  0.60510  0.08310  0.61960  1.0000
  C   C20       1.0  0.39490  0.91690  0.38040  1.0000
  C   C21       1.0  0.33950  0.71250  0.00620  1.0000
  C   C22       1.0  0.66050  0.28750  0.99380  1.0000
  C   C23       1.0  0.83950  0.07040  0.76330  1.0000
  C   C24       1.0  0.16050  0.92960  0.23670  1.0000
  C   C25       1.0  0.20300  0.76860  0.12540  1.0000
  C   C26       1.0  0.79700  0.23140  0.87460  1.0000
  H   H7        1.0  0.16350  0.75640  0.19150  1.0000
  H   H8        1.0  0.83650  0.24360  0.80850  1.0000
  C   C27       1.0  0.56440  0.02150  0.58740  1.0000
  C   C28       1.0  0.43560  0.97850  0.41260  1.0000
  H   H9        1.0  0.50160  0.04430  0.55360  1.0000
  H   H10       1.0  0.49840  0.95570  0.44640  1.0000
  C   C29       1.0  0.36570  0.81420  0.82660  1.0000
  C   C30       1.0  0.63430  0.18580  0.17340  1.0000
  H   H11       1.0  0.35100  0.87300  0.77300  1.0000
  H   H12       1.0  0.64900  0.12700  0.22700  1.0000
  C   C31       1.0  0.56280  0.18400  0.59350  1.0000
  C   C32       1.0  0.43720  0.81600  0.40650  1.0000
  C   C33       1.0  0.28380  0.69960  0.10640  1.0000
  C   C34       1.0  0.71620  0.30040  0.89360  1.0000
  C   C35       1.0  0.71970  0.20960  0.65930  1.0000
  C   C36       1.0  0.28030  0.79040  0.34070  1.0000
  H   H13       1.0  0.76110  0.25310  0.66790  1.0000
  H   H14       1.0  0.23890  0.74690  0.33210  1.0000
  C   C37       1.0  0.17840  0.85880  0.04570  1.0000
  C   C38       1.0  0.82160  0.14120  0.95430  1.0000
  H   H15       1.0  0.12410  0.90620  0.05920  1.0000
  H   H16       1.0  0.87590  0.09380  0.94080  1.0000
  C   C39       1.0  0.46120  0.65260  0.88710  1.0000
  C   C40       1.0  0.53880  0.34740  0.11290  1.0000
  H   H17       1.0  0.51050  0.60320  0.87360  1.0000
  H   H18       1.0  0.48950  0.39680  0.12640  1.0000
  C   C41       1.0  0.62280  0.24570  0.60900  1.0000
  C   C42       1.0  0.37720  0.75430  0.39100  1.0000
  H   H19       1.0  0.60000  0.31270  0.58620  1.0000
  H   H20       1.0  0.40000  0.68730  0.41380  1.0000
  C   C43       1.0  0.31390  0.61070  0.19490  1.0000
  C   C44       1.0  0.68610  0.38930  0.80510  1.0000
  C   C45       1.0  0.43560  0.74110  0.80780  1.0000
  C   C46       1.0  0.56440  0.25890  0.19220  1.0000
  H   H21       1.0  0.46650  0.74960  0.74220  1.0000
  H   H22       1.0  0.53350  0.25040  0.25780  1.0000
  C   C47       1.0  0.41410  0.63820  0.98480  1.0000
  C   C48       1.0  0.58590  0.36180  0.01520  1.0000
  H   H23       1.0  0.43150  0.57920  0.03690  1.0000
  H   H24       1.0  0.56850  0.42080  0.96310  1.0000
  U   U3        1.0  0.37554  0.44719  0.36581  1.0000
  U   U4        1.0  0.62446  0.55281  0.63419  1.0000
  O   O21       1.0  0.36820  0.36440  0.31750  1.0000
  O   O22       1.0  0.63180  0.63560  0.68250  1.0000
  O   O23       1.0  0.37980  0.52940  0.41440  1.0000
  O   O24       1.0  0.62020  0.47060  0.58560  1.0000
  O   O25       1.0  0.59510  0.45480  0.30520  1.0000
  O   O26       1.0  0.40490  0.54520  0.69480  1.0000
  O   O27       1.0  0.71030  0.59370  0.22520  1.0000
  O   O28       1.0  0.28970  0.40630  0.77480  1.0000
  C   C49       1.0  0.82830  0.34780  0.36210  1.0000
  C   C50       1.0  0.17170  0.65220  0.63790  1.0000
  C   C51       1.0  0.79600  0.45100  0.33600  1.0000
  C   C52       1.0  0.20400  0.54900  0.66400  1.0000
  C   C53       1.0  0.69220  0.50440  0.28570  1.0000
  C   C54       1.0  0.30780  0.49560  0.71430  1.0000
  C   C55       1.0  0.76670  0.28790  0.34010  1.0000
  C   C56       1.0  0.23330  0.71210  0.65990  1.0000
  H   H25       1.0  0.70150  0.31510  0.30920  1.0000
  H   H26       1.0  0.29850  0.68490  0.69080  1.0000
  C   C57       1.0  0.99210  0.36640  0.43010  1.0000
  C   C58       1.0  0.00790  0.63360  0.56990  1.0000
  C   C59       1.0  0.95770  0.46390  0.40370  1.0000
  C   C60       1.0  0.04230  0.53610  0.59630  1.0000
  H   H27       1.0  0.00030  0.50320  0.41670  1.0000
  H   H28       1.0  0.99970  0.49680  0.58330  1.0000
  C   C61       1.0  0.85990  0.50580  0.35760  1.0000
  C   C62       1.0  0.14010  0.49420  0.64240  1.0000
  H   H29       1.0  0.83770  0.57230  0.34120  1.0000
  H   H30       1.0  0.16230  0.42770  0.65880  1.0000
  C   C63       1.0  0.92920  0.30520  0.40860  1.0000
  C   C64       1.0  0.07080  0.69480  0.59140  1.0000
  C   C65       1.0  0.96200  0.20420  0.43040  1.0000
  C   C66       1.0  0.03800  0.79580  0.56960  1.0000
  H   H31       1.0  0.02720  0.17480  0.46080  1.0000
  H   H32       1.0  0.97280  0.82520  0.53920  1.0000
  C   C67       1.0  0.90070  0.14970  0.40790  1.0000
  C   C68       1.0  0.09930  0.85030  0.59210  1.0000
  H   H33       1.0  0.92530  0.08400  0.42230  1.0000
  H   H34       1.0  0.07470  0.91600  0.57770  1.0000
  C   C69       1.0  0.80170  0.19020  0.36380  1.0000
  C   C70       1.0  0.19830  0.80980  0.63620  1.0000
  H   H35       1.0  0.75920  0.15130  0.35040  1.0000
  H   H36       1.0  0.24080  0.84870  0.64960  1.0000
  O   O29       1.0  0.09950  0.23650  0.54080  1.0000
  O   O30       1.0  0.90050  0.76350  0.45920  1.0000
  C   C71       1.0  0.09550  0.32790  0.48350  1.0000
  C   C72       1.0  0.90450  0.67210  0.51650  1.0000
  O   O31       1.0  0.17210  0.39130  0.46980  1.0000
  O   O32       1.0  0.82790  0.60870  0.53020  1.0000
