data_image0
_chemical_formula_structural       NiO12C2H2C8H8
_chemical_formula_sum              "Ni1 O12 C10 H10"
_cell_length_a       6.7542
_cell_length_b       10.0014
_cell_length_c       10.9088
_cell_angle_alpha    74.14
_cell_angle_beta     74.388
_cell_angle_gamma    73.239

_space_group_name_H-M_alt    "P 1"
_space_group_IT_number       1

loop_
  _space_group_symop_operation_xyz
  'x, y, z'

loop_
  _atom_site_type_symbol
  _atom_site_label
  _atom_site_symmetry_multiplicity
  _atom_site_fract_x
  _atom_site_fract_y
  _atom_site_fract_z
  _atom_site_occupancy
  Ni  Ni1       1.0  0.50000  0.50000  0.50000  1.0000
  O   O1        1.0  0.55390  0.71300  0.20140  1.0000
  O   O2        1.0  0.44610  0.28700  0.79860  1.0000
  O   O3        1.0  0.65110  0.48840  0.31310  1.0000
  O   O4        1.0  0.34890  0.51160  0.68690  1.0000
  O   O5        1.0  0.73290  0.32440  0.56380  1.0000
  O   O6        1.0  0.26710  0.67560  0.43620  1.0000
  O   O7        1.0  0.67480  0.64190  0.48750  1.0000
  O   O8        1.0  0.32520  0.35810  0.51250  1.0000
  O   O9        1.0  0.04650  0.58890  0.29390  1.0000
  O   O10       1.0  0.95350  0.41110  0.70610  1.0000
  O   O11       1.0  0.21710  0.36000  0.29640  1.0000
  O   O12       1.0  0.78290  0.64000  0.70360  1.0000
  C   C1        1.0  0.79320  0.56070  0.98180  1.0000
  C   C2        1.0  0.20680  0.43930  0.01820  1.0000
  H   H1        1.0  0.65540  0.60110  0.97010  1.0000
  H   H2        1.0  0.34460  0.39890  0.02990  1.0000
  C   C3        1.0  0.84390  0.54750  0.10040  1.0000
  C   C4        1.0  0.15610  0.45250  0.89960  1.0000
  C   C5        1.0  0.66630  0.58870  0.21470  1.0000
  C   C6        1.0  0.33370  0.41130  0.78530  1.0000
  C   C7        1.0  0.04890  0.48720  0.12020  1.0000
  C   C8        1.0  0.95110  0.51280  0.87980  1.0000
  C   C9        1.0  0.10730  0.47730  0.24680  1.0000
  C   C10       1.0  0.89270  0.52270  0.75320  1.0000
  H   H3        1.0  0.81800  0.34200  0.59300  1.0000
  H   H4        1.0  0.18200  0.65800  0.40700  1.0000
  H   H5        1.0  0.64200  0.27700  0.62500  1.0000
  H   H6        1.0  0.35800  0.72300  0.37500  1.0000
  H   H7        1.0  0.71300  0.64000  0.55600  1.0000
  H   H8        1.0  0.28700  0.36000  0.44400  1.0000
  H   H9        1.0  0.79500  0.62900  0.44100  1.0000
  H   H10       1.0  0.20500  0.37100  0.55900  1.0000
