data_image0
_chemical_formula_structural       U8O64C8H8C8H8C4H4C4H8C4H8C4H4C4H8C4H8C4H8C8H8C12H8C8H8C4H4C4H8C4H8C4H4C4H8C4H8C4H8C8H8C12H8C8H8C4H4C4H8C4H8C4H4C4H8C4H8C4H8C8H8C4
_chemical_formula_sum              "U8 O64 C168 H216"
_cell_length_a       16.5765
_cell_length_b       13.5501
_cell_length_c       24.0775
_cell_angle_alpha    90
_cell_angle_beta     95.8
_cell_angle_gamma    90

_space_group_name_H-M_alt    "P 1"
_space_group_IT_number       1

loop_
  _space_group_symop_operation_xyz
  'x, y, z'

loop_
  _atom_site_type_symbol
  _atom_site_label
  _atom_site_symmetry_multiplicity
  _atom_site_fract_x
  _atom_site_fract_y
  _atom_site_fract_z
  _atom_site_occupancy
  U   U1        1.0  0.36746  0.32919  0.49501  1.0000
  U   U2        1.0  0.13254  0.82919  0.00499  1.0000
  U   U3        1.0  0.63254  0.67081  0.50499  1.0000
  U   U4        1.0  0.86746  0.17081  0.99501  1.0000
  U   U5        1.0  0.97171  0.06414  0.64571  1.0000
  U   U6        1.0  0.52829  0.56414  0.85429  1.0000
  U   U7        1.0  0.02829  0.93586  0.35429  1.0000
  U   U8        1.0  0.47171  0.43586  0.14571  1.0000
  O   O1        1.0  0.38431  0.20170  0.48943  1.0000
  O   O2        1.0  0.11569  0.70170  0.01057  1.0000
  O   O3        1.0  0.61569  0.79830  0.51057  1.0000
  O   O4        1.0  0.88431  0.29830  0.98943  1.0000
  O   O5        1.0  0.34970  0.45750  0.50020  1.0000
  O   O6        1.0  0.15030  0.95750  0.99980  1.0000
  O   O7        1.0  0.65030  0.54250  0.49980  1.0000
  O   O8        1.0  0.84970  0.04250  0.00020  1.0000
  O   O9        1.0  0.87370  0.05870  0.66692  1.0000
  O   O10       1.0  0.62630  0.55870  0.83308  1.0000
  O   O11       1.0  0.12630  0.94130  0.33308  1.0000
  O   O12       1.0  0.37370  0.44130  0.16692  1.0000
  O   O13       1.0  0.07118  0.06990  0.62585  1.0000
  O   O14       1.0  0.42882  0.56990  0.87415  1.0000
  O   O15       1.0  0.92882  0.93010  0.37415  1.0000
  O   O16       1.0  0.57118  0.43010  0.12585  1.0000
  O   O17       1.0  0.49456  0.35740  0.45291  1.0000
  O   O18       1.0  0.00544  0.85740  0.04709  1.0000
  O   O19       1.0  0.50544  0.64260  0.54709  1.0000
  O   O20       1.0  0.99456  0.14260  0.95291  1.0000
  O   O21       1.0  0.50509  0.34160  0.54332  1.0000
  O   O22       1.0  0.99491  0.84160  0.95668  1.0000
  O   O23       1.0  0.49491  0.65840  0.45668  1.0000
  O   O24       1.0  0.00509  0.15840  0.04332  1.0000
  O   O25       1.0  0.91186  0.15950  0.56394  1.0000
  O   O26       1.0  0.58814  0.65950  0.93606  1.0000
  O   O27       1.0  0.08814  0.84050  0.43606  1.0000
  O   O28       1.0  0.41186  0.34050  0.06394  1.0000
  O   O29       1.0  0.92087  0.99990  0.55416  1.0000
  O   O30       1.0  0.57913  0.49990  0.94584  1.0000
  O   O31       1.0  0.07913  0.00010  0.44584  1.0000
  O   O32       1.0  0.42087  0.50010  0.05416  1.0000
  O   O33       1.0  0.36433  0.31560  0.59564  1.0000
  O   O34       1.0  0.13567  0.81560  0.90436  1.0000
  O   O35       1.0  0.63567  0.68440  0.40436  1.0000
  O   O36       1.0  0.86433  0.18440  0.09564  1.0000
  O   O37       1.0  0.24680  0.30700  0.54699  1.0000
  O   O38       1.0  0.25320  0.80700  0.95301  1.0000
  O   O39       1.0  0.75320  0.69300  0.45301  1.0000
  O   O40       1.0  0.74680  0.19300  0.04699  1.0000
  O   O41       1.0  0.52561  0.38040  0.86240  1.0000
  O   O42       1.0  0.97439  0.88040  0.63760  1.0000
  O   O43       1.0  0.47439  0.61960  0.13760  1.0000
  O   O44       1.0  0.02561  0.11960  0.36240  1.0000
  O   O45       1.0  0.48500  0.44300  0.78017  1.0000
  O   O46       1.0  0.01500  0.94300  0.71983  1.0000
  O   O47       1.0  0.51500  0.55700  0.21983  1.0000
  O   O48       1.0  0.98500  0.05700  0.28017  1.0000
  O   O49       1.0  0.01055  0.14870  0.73654  1.0000
  O   O50       1.0  0.48945  0.64870  0.76346  1.0000
  O   O51       1.0  0.98945  0.85130  0.26346  1.0000
  O   O52       1.0  0.51055  0.35130  0.23654  1.0000
  O   O53       1.0  0.98594  0.24380  0.66367  1.0000
  O   O54       1.0  0.51406  0.74380  0.83633  1.0000
  O   O55       1.0  0.01406  0.75620  0.33633  1.0000
  O   O56       1.0  0.48594  0.25620  0.16367  1.0000
  O   O57       1.0  0.74311  0.20510  0.93131  1.0000
  O   O58       1.0  0.75689  0.70510  0.56869  1.0000
  O   O59       1.0  0.25689  0.79490  0.06869  1.0000
  O   O60       1.0  0.24311  0.29490  0.43131  1.0000
  O   O61       1.0  0.84806  0.15340  0.89220  1.0000
  O   O62       1.0  0.65194  0.65340  0.60780  1.0000
  O   O63       1.0  0.15194  0.84660  0.10780  1.0000
  O   O64       1.0  0.34806  0.34660  0.39220  1.0000
  C   C1        1.0  0.64630  0.21450  0.48286  1.0000
  C   C2        1.0  0.85370  0.71450  0.01714  1.0000
  C   C3        1.0  0.35370  0.78550  0.51714  1.0000
  C   C4        1.0  0.14630  0.28550  0.98286  1.0000
  C   C5        1.0  0.73910  0.20140  0.48787  1.0000
  C   C6        1.0  0.76090  0.70140  0.01213  1.0000
  C   C7        1.0  0.26090  0.79860  0.51213  1.0000
  C   C8        1.0  0.23910  0.29860  0.98787  1.0000
  H   H1        1.0  0.76260  0.24950  0.46310  1.0000
  H   H2        1.0  0.73740  0.74950  0.03690  1.0000
  H   H3        1.0  0.23740  0.75050  0.53690  1.0000
  H   H4        1.0  0.26260  0.25050  0.96310  1.0000
  H   H5        1.0  0.76150  0.21570  0.52670  1.0000
  H   H6        1.0  0.73850  0.71570  0.97330  1.0000
  H   H7        1.0  0.23850  0.78430  0.47330  1.0000
  H   H8        1.0  0.26150  0.28430  0.02670  1.0000
  C   C9        1.0  0.76380  0.09780  0.47242  1.0000
  C   C10       1.0  0.73620  0.59780  0.02758  1.0000
  C   C11       1.0  0.23620  0.90220  0.52758  1.0000
  C   C12       1.0  0.26380  0.40220  0.97242  1.0000
  C   C13       1.0  0.72960  0.07660  0.41267  1.0000
  C   C14       1.0  0.77040  0.57660  0.08733  1.0000
  C   C15       1.0  0.27040  0.92340  0.58733  1.0000
  C   C16       1.0  0.22960  0.42340  0.91267  1.0000
  H   H9        1.0  0.74500  0.00900  0.40220  1.0000
  H   H10       1.0  0.75500  0.50900  0.09780  1.0000
  H   H11       1.0  0.25500  0.99100  0.59780  1.0000
  H   H12       1.0  0.24500  0.49100  0.90220  1.0000
  H   H13       1.0  0.75290  0.12360  0.38720  1.0000
  H   H14       1.0  0.74710  0.62360  0.11280  1.0000
  H   H15       1.0  0.24710  0.87640  0.61280  1.0000
  H   H16       1.0  0.25290  0.37640  0.88720  1.0000
  C   C17       1.0  0.63690  0.08610  0.40628  1.0000
  C   C18       1.0  0.86310  0.58610  0.09372  1.0000
  C   C19       1.0  0.36310  0.91390  0.59372  1.0000
  C   C20       1.0  0.13690  0.41390  0.90628  1.0000
  H   H17       1.0  0.61560  0.07190  0.36670  1.0000
  H   H18       1.0  0.88440  0.57190  0.13330  1.0000
  H   H19       1.0  0.38440  0.92810  0.63330  1.0000
  H   H20       1.0  0.11560  0.42810  0.86670  1.0000
  C   C21       1.0  0.61300  0.19020  0.42171  1.0000
  C   C22       1.0  0.88700  0.69020  0.07829  1.0000
  C   C23       1.0  0.38700  0.80980  0.57829  1.0000
  C   C24       1.0  0.11300  0.30980  0.92171  1.0000
  H   H21       1.0  0.55310  0.19610  0.41760  1.0000
  H   H22       1.0  0.94690  0.69610  0.08240  1.0000
  H   H23       1.0  0.44690  0.80390  0.58240  1.0000
  H   H24       1.0  0.05310  0.30390  0.91760  1.0000
  H   H25       1.0  0.63490  0.23810  0.39600  1.0000
  H   H26       1.0  0.86510  0.73810  0.10400  1.0000
  H   H27       1.0  0.36510  0.76190  0.60400  1.0000
  H   H28       1.0  0.13490  0.26190  0.89600  1.0000
  C   C25       1.0  0.61100  0.13840  0.52124  1.0000
  C   C26       1.0  0.88900  0.63840  0.97876  1.0000
  C   C27       1.0  0.38900  0.86160  0.47876  1.0000
  C   C28       1.0  0.11100  0.36160  0.02124  1.0000
  H   H29       1.0  0.63140  0.15220  0.56050  1.0000
  H   H30       1.0  0.86860  0.65220  0.93950  1.0000
  H   H31       1.0  0.36860  0.84780  0.43950  1.0000
  H   H32       1.0  0.13140  0.34780  0.06050  1.0000
  H   H33       1.0  0.55110  0.14440  0.51770  1.0000
  H   H34       1.0  0.94890  0.64440  0.98230  1.0000
  H   H35       1.0  0.44890  0.85560  0.48230  1.0000
  H   H36       1.0  0.05110  0.35560  0.01770  1.0000
  C   C29       1.0  0.63460  0.03270  0.50593  1.0000
  C   C30       1.0  0.86540  0.53270  0.99407  1.0000
  C   C31       1.0  0.36540  0.96730  0.49407  1.0000
  C   C32       1.0  0.13460  0.46730  0.00593  1.0000
  H   H37       1.0  0.61160  0.98450  0.53150  1.0000
  H   H38       1.0  0.88840  0.48450  0.96850  1.0000
  H   H39       1.0  0.38840  0.01550  0.46850  1.0000
  H   H40       1.0  0.11160  0.51550  0.03150  1.0000
  C   C33       1.0  0.72720  0.02380  0.51135  1.0000
  C   C34       1.0  0.77280  0.52380  0.98865  1.0000
  C   C35       1.0  0.27280  0.97620  0.48865  1.0000
  C   C36       1.0  0.22720  0.47620  0.01135  1.0000
  H   H41       1.0  0.74260  0.95590  0.50170  1.0000
  H   H42       1.0  0.75740  0.45590  0.99830  1.0000
  H   H43       1.0  0.25740  0.04410  0.49830  1.0000
  H   H44       1.0  0.24260  0.54410  0.00170  1.0000
  H   H45       1.0  0.74900  0.03690  0.55050  1.0000
  H   H46       1.0  0.75100  0.53690  0.94950  1.0000
  H   H47       1.0  0.25100  0.96310  0.44950  1.0000
  H   H48       1.0  0.24900  0.46310  0.05050  1.0000
  C   C37       1.0  0.60090  0.01140  0.44536  1.0000
  C   C38       1.0  0.89910  0.51140  0.05464  1.0000
  C   C39       1.0  0.39910  0.98860  0.55464  1.0000
  C   C40       1.0  0.10090  0.48860  0.94536  1.0000
  H   H49       1.0  0.54110  0.01700  0.44150  1.0000
  H   H50       1.0  0.95890  0.51700  0.05850  1.0000
  H   H51       1.0  0.45890  0.98300  0.55850  1.0000
  H   H52       1.0  0.04110  0.48300  0.94150  1.0000
  H   H53       1.0  0.61540  0.94340  0.43510  1.0000
  H   H54       1.0  0.88460  0.44340  0.06490  1.0000
  H   H55       1.0  0.38460  0.05660  0.56490  1.0000
  H   H56       1.0  0.11540  0.55660  0.93510  1.0000
  C   C41       1.0  0.62800  0.32020  0.49848  1.0000
  C   C42       1.0  0.87200  0.82020  0.00152  1.0000
  C   C43       1.0  0.37200  0.67980  0.50152  1.0000
  C   C44       1.0  0.12800  0.17980  0.99848  1.0000
  H   H57       1.0  0.65560  0.33410  0.53600  1.0000
  H   H58       1.0  0.84440  0.83410  0.96400  1.0000
  H   H59       1.0  0.34440  0.66590  0.46400  1.0000
  H   H60       1.0  0.15560  0.16590  0.03600  1.0000
  H   H61       1.0  0.65100  0.36520  0.47180  1.0000
  H   H62       1.0  0.84900  0.86520  0.02820  1.0000
  H   H63       1.0  0.34900  0.63480  0.52820  1.0000
  H   H64       1.0  0.15100  0.13480  0.97180  1.0000
  C   C45       1.0  0.53910  0.34290  0.49880  1.0000
  C   C46       1.0  0.96090  0.84290  0.00120  1.0000
  C   C47       1.0  0.46090  0.65710  0.50120  1.0000
  C   C48       1.0  0.03910  0.15710  0.99880  1.0000
  C   C49       1.0  0.85670  0.08840  0.47493  1.0000
  C   C50       1.0  0.64330  0.58840  0.02507  1.0000
  C   C51       1.0  0.14330  0.91160  0.52507  1.0000
  C   C52       1.0  0.35670  0.41160  0.97493  1.0000
  H   H65       1.0  0.87000  0.02840  0.45420  1.0000
  H   H66       1.0  0.63000  0.52840  0.04580  1.0000
  H   H67       1.0  0.13000  0.97160  0.54580  1.0000
  H   H68       1.0  0.37000  0.47160  0.95420  1.0000
  H   H69       1.0  0.87820  0.14590  0.45580  1.0000
  H   H70       1.0  0.62180  0.64590  0.04420  1.0000
  H   H71       1.0  0.12180  0.85410  0.54420  1.0000
  H   H72       1.0  0.37820  0.35410  0.95580  1.0000
  C   C53       1.0  0.89940  0.08240  0.53401  1.0000
  C   C54       1.0  0.60060  0.58240  0.96599  1.0000
  C   C55       1.0  0.10060  0.91760  0.46599  1.0000
  C   C56       1.0  0.39940  0.41760  0.03401  1.0000
  C   C57       1.0  0.28420  0.25230  0.69644  1.0000
  C   C58       1.0  0.21580  0.75230  0.80356  1.0000
  C   C59       1.0  0.71580  0.74770  0.30356  1.0000
  C   C60       1.0  0.78420  0.24770  0.19644  1.0000
  C   C61       1.0  0.36860  0.29120  0.71867  1.0000
  C   C62       1.0  0.13140  0.79120  0.78133  1.0000
  C   C63       1.0  0.63140  0.70880  0.28133  1.0000
  C   C64       1.0  0.86860  0.20880  0.21867  1.0000
  H   H73       1.0  0.36390  0.36100  0.73010  1.0000
  H   H74       1.0  0.13610  0.86100  0.76990  1.0000
  H   H75       1.0  0.63610  0.63900  0.26990  1.0000
  H   H76       1.0  0.86390  0.13900  0.23010  1.0000
  H   H77       1.0  0.40480  0.28860  0.68840  1.0000
  H   H78       1.0  0.09520  0.78860  0.81160  1.0000
  H   H79       1.0  0.59520  0.71140  0.31160  1.0000
  H   H80       1.0  0.90480  0.21140  0.18840  1.0000
  C   C65       1.0  0.40630  0.23050  0.76890  1.0000
  C   C66       1.0  0.09370  0.73050  0.73110  1.0000
  C   C67       1.0  0.59370  0.76950  0.23110  1.0000
  C   C68       1.0  0.90630  0.26950  0.26890  1.0000
  C   C69       1.0  0.35090  0.24020  0.81656  1.0000
  C   C70       1.0  0.14910  0.74020  0.68344  1.0000
  C   C71       1.0  0.64910  0.75980  0.18344  1.0000
  C   C72       1.0  0.85090  0.25980  0.31656  1.0000
  H   H81       1.0  0.37380  0.20160  0.84940  1.0000
  H   H82       1.0  0.12620  0.70160  0.65060  1.0000
  H   H83       1.0  0.62620  0.79840  0.15060  1.0000
  H   H84       1.0  0.87380  0.29840  0.34940  1.0000
  H   H85       1.0  0.34770  0.31020  0.82790  1.0000
  H   H86       1.0  0.15230  0.81020  0.67210  1.0000
  H   H87       1.0  0.65230  0.68980  0.17210  1.0000
  H   H88       1.0  0.84770  0.18980  0.32790  1.0000
  C   C73       1.0  0.26550  0.20150  0.79610  1.0000
  C   C74       1.0  0.23450  0.70150  0.70390  1.0000
  C   C75       1.0  0.73450  0.79850  0.20390  1.0000
  C   C76       1.0  0.76550  0.29850  0.29610  1.0000
  H   H89       1.0  0.22950  0.20810  0.82680  1.0000
  H   H90       1.0  0.27050  0.70810  0.67320  1.0000
  H   H91       1.0  0.77050  0.79190  0.17320  1.0000
  H   H92       1.0  0.72950  0.29190  0.32680  1.0000
  C   C77       1.0  0.22910  0.26110  0.74460  1.0000
  C   C78       1.0  0.27090  0.76110  0.75540  1.0000
  C   C79       1.0  0.77090  0.73890  0.25540  1.0000
  C   C80       1.0  0.72910  0.23890  0.24460  1.0000
  H   H93       1.0  0.22400  0.33140  0.75500  1.0000
  H   H94       1.0  0.27600  0.83140  0.74500  1.0000
  H   H95       1.0  0.77600  0.66860  0.24500  1.0000
  H   H96       1.0  0.72400  0.16860  0.25500  1.0000
  H   H97       1.0  0.17430  0.23580  0.73200  1.0000
  H   H98       1.0  0.32570  0.73580  0.76800  1.0000
  H   H99       1.0  0.82570  0.76420  0.26800  1.0000
  H   H100      1.0  0.67430  0.26420  0.23200  1.0000
  C   C81       1.0  0.28920  0.14310  0.68130  1.0000
  C   C82       1.0  0.21080  0.64310  0.81870  1.0000
  C   C83       1.0  0.71080  0.85690  0.31870  1.0000
  C   C84       1.0  0.78920  0.35690  0.18130  1.0000
  H   H101      1.0  0.32390  0.13490  0.65050  1.0000
  H   H102      1.0  0.17610  0.63490  0.84950  1.0000
  H   H103      1.0  0.67610  0.86510  0.34950  1.0000
  H   H104      1.0  0.82390  0.36510  0.15050  1.0000
  H   H105      1.0  0.23430  0.11820  0.66840  1.0000
  H   H106      1.0  0.26570  0.61820  0.83160  1.0000
  H   H107      1.0  0.76570  0.88180  0.33160  1.0000
  H   H108      1.0  0.73430  0.38180  0.16840  1.0000
  C   C85       1.0  0.32470  0.08280  0.73260  1.0000
  C   C86       1.0  0.17530  0.58280  0.76740  1.0000
  C   C87       1.0  0.67530  0.91720  0.26740  1.0000
  C   C88       1.0  0.82470  0.41720  0.23260  1.0000
  H   H109      1.0  0.32860  0.01180  0.72180  1.0000
  H   H110      1.0  0.17140  0.51180  0.77820  1.0000
  H   H111      1.0  0.67140  0.98820  0.27820  1.0000
  H   H112      1.0  0.82860  0.48820  0.22180  1.0000
  C   C89       1.0  0.40900  0.12160  0.75170  1.0000
  C   C90       1.0  0.09100  0.62160  0.74830  1.0000
  C   C91       1.0  0.59100  0.87840  0.24830  1.0000
  C   C92       1.0  0.90900  0.37840  0.25170  1.0000
  H   H113      1.0  0.44410  0.11440  0.72100  1.0000
  H   H114      1.0  0.05590  0.61440  0.77900  1.0000
  H   H115      1.0  0.55590  0.88560  0.27900  1.0000
  H   H116      1.0  0.94410  0.38560  0.22100  1.0000
  H   H117      1.0  0.43300  0.08200  0.78380  1.0000
  H   H118      1.0  0.06700  0.58200  0.71620  1.0000
  H   H119      1.0  0.56700  0.91800  0.21620  1.0000
  H   H120      1.0  0.93300  0.41800  0.28380  1.0000
  C   C93       1.0  0.27060  0.09190  0.77940  1.0000
  C   C94       1.0  0.22940  0.59190  0.72060  1.0000
  C   C95       1.0  0.72940  0.90810  0.22060  1.0000
  C   C96       1.0  0.77060  0.40810  0.27940  1.0000
  H   H121      1.0  0.29320  0.05250  0.81190  1.0000
  H   H122      1.0  0.20680  0.55250  0.68810  1.0000
  H   H123      1.0  0.70680  0.94750  0.18810  1.0000
  H   H124      1.0  0.79320  0.44750  0.31190  1.0000
  H   H125      1.0  0.21580  0.06650  0.76690  1.0000
  H   H126      1.0  0.28420  0.56650  0.73310  1.0000
  H   H127      1.0  0.78420  0.93350  0.23310  1.0000
  H   H128      1.0  0.71580  0.43350  0.26690  1.0000
  C   C97       1.0  0.24570  0.31300  0.64665  1.0000
  C   C98       1.0  0.25430  0.81300  0.85335  1.0000
  C   C99       1.0  0.75430  0.68700  0.35335  1.0000
  C   C100      1.0  0.74570  0.18700  0.14665  1.0000
  H   H129      1.0  0.18950  0.28920  0.63730  1.0000
  H   H130      1.0  0.31050  0.78920  0.86270  1.0000
  H   H131      1.0  0.81050  0.71080  0.36270  1.0000
  H   H132      1.0  0.68950  0.21080  0.13730  1.0000
  H   H133      1.0  0.24230  0.38250  0.65880  1.0000
  H   H134      1.0  0.25770  0.88250  0.84120  1.0000
  H   H135      1.0  0.75770  0.61750  0.34120  1.0000
  H   H136      1.0  0.74230  0.11750  0.15880  1.0000
  C   C101      1.0  0.28780  0.31100  0.59420  1.0000
  C   C102      1.0  0.21220  0.81100  0.90580  1.0000
  C   C103      1.0  0.71220  0.68900  0.40580  1.0000
  C   C104      1.0  0.78780  0.18900  0.09420  1.0000
  C   C105      1.0  0.49240  0.26460  0.78740  1.0000
  C   C106      1.0  0.00760  0.76460  0.71260  1.0000
  C   C107      1.0  0.50760  0.73540  0.21260  1.0000
  C   C108      1.0  0.99240  0.23540  0.28740  1.0000
  H   H137      1.0  0.51650  0.21860  0.81650  1.0000
  H   H138      1.0  0.98350  0.71860  0.68350  1.0000
  H   H139      1.0  0.48350  0.78140  0.18350  1.0000
  H   H140      1.0  0.01650  0.28140  0.31650  1.0000
  H   H141      1.0  0.52470  0.25950  0.75520  1.0000
  H   H142      1.0  0.97530  0.75950  0.74480  1.0000
  H   H143      1.0  0.47530  0.74050  0.24480  1.0000
  H   H144      1.0  0.02470  0.24050  0.25520  1.0000
  C   C109      1.0  0.50050  0.36760  0.81000  1.0000
  C   C110      1.0  0.99950  0.86760  0.69000  1.0000
  C   C111      1.0  0.49950  0.63240  0.19000  1.0000
  C   C112      1.0  0.00050  0.13240  0.31000  1.0000
  C   C113      1.0  0.92300  0.36150  0.76781  1.0000
  C   C114      1.0  0.57700  0.86150  0.73219  1.0000
  C   C115      1.0  0.07700  0.63850  0.23219  1.0000
  C   C116      1.0  0.42300  0.13850  0.26781  1.0000
  C   C117      1.0  0.87360  0.27720  0.79191  1.0000
  C   C118      1.0  0.62640  0.77720  0.70809  1.0000
  C   C119      1.0  0.12640  0.72280  0.20809  1.0000
  C   C120      1.0  0.37360  0.22280  0.29191  1.0000
  H   H145      1.0  0.86330  0.22470  0.76350  1.0000
  H   H146      1.0  0.63670  0.72470  0.73650  1.0000
  H   H147      1.0  0.13670  0.77530  0.23650  1.0000
  H   H148      1.0  0.36330  0.27530  0.26350  1.0000
  H   H149      1.0  0.90560  0.24810  0.82480  1.0000
  H   H150      1.0  0.59440  0.74810  0.67520  1.0000
  H   H151      1.0  0.09440  0.75190  0.17520  1.0000
  H   H152      1.0  0.40560  0.25190  0.32480  1.0000
  C   C121      1.0  0.79220  0.31560  0.80908  1.0000
  C   C122      1.0  0.70780  0.81560  0.69092  1.0000
  C   C123      1.0  0.20780  0.68440  0.19092  1.0000
  C   C124      1.0  0.29220  0.18440  0.30908  1.0000
  C   C125      1.0  0.74390  0.36020  0.75616  1.0000
  C   C126      1.0  0.75610  0.86020  0.74384  1.0000
  C   C127      1.0  0.25610  0.63980  0.24384  1.0000
  C   C128      1.0  0.24390  0.13980  0.25616  1.0000
  H   H153      1.0  0.73350  0.30830  0.72740  1.0000
  H   H154      1.0  0.76650  0.80830  0.77260  1.0000
  H   H155      1.0  0.26650  0.69170  0.27260  1.0000
  H   H156      1.0  0.23350  0.19170  0.22740  1.0000
  H   H157      1.0  0.69090  0.38500  0.76580  1.0000
  H   H158      1.0  0.80910  0.88500  0.73420  1.0000
  H   H159      1.0  0.30910  0.61500  0.23420  1.0000
  H   H160      1.0  0.19090  0.11500  0.26580  1.0000
  C   C129      1.0  0.79100  0.44410  0.73300  1.0000
  C   C130      1.0  0.70900  0.94410  0.76700  1.0000
  C   C131      1.0  0.20900  0.55590  0.26700  1.0000
  C   C132      1.0  0.29100  0.05590  0.23300  1.0000
  H   H161      1.0  0.75900  0.47220  0.69930  1.0000
  H   H162      1.0  0.74100  0.97220  0.80070  1.0000
  H   H163      1.0  0.24100  0.52780  0.30070  1.0000
  H   H164      1.0  0.25900  0.02780  0.19930  1.0000
  C   C133      1.0  0.87360  0.40450  0.71651  1.0000
  C   C134      1.0  0.62640  0.90450  0.78349  1.0000
  C   C135      1.0  0.12640  0.59550  0.28349  1.0000
  C   C136      1.0  0.37360  0.09550  0.21651  1.0000
  H   H165      1.0  0.86380  0.35280  0.68750  1.0000
  H   H166      1.0  0.63620  0.85280  0.81250  1.0000
  H   H167      1.0  0.13620  0.64720  0.31250  1.0000
  H   H168      1.0  0.36380  0.14720  0.18750  1.0000
  H   H169      1.0  0.90420  0.45890  0.70090  1.0000
  H   H170      1.0  0.59580  0.95890  0.79910  1.0000
  H   H171      1.0  0.09580  0.54110  0.29910  1.0000
  H   H172      1.0  0.40420  0.04110  0.20090  1.0000
  C   C137      1.0  0.93630  0.44090  0.81253  1.0000
  C   C138      1.0  0.56370  0.94090  0.68747  1.0000
  C   C139      1.0  0.06370  0.55910  0.18747  1.0000
  C   C140      1.0  0.43630  0.05910  0.31253  1.0000
  H   H173      1.0  0.96910  0.49490  0.79860  1.0000
  H   H174      1.0  0.53090  0.99490  0.70140  1.0000
  H   H175      1.0  0.03090  0.50510  0.20140  1.0000
  H   H176      1.0  0.46910  0.00510  0.29860  1.0000
  H   H177      1.0  0.96720  0.41240  0.84610  1.0000
  H   H178      1.0  0.53280  0.91240  0.65390  1.0000
  H   H179      1.0  0.03280  0.58760  0.15390  1.0000
  H   H180      1.0  0.46720  0.08760  0.34610  1.0000
  C   C141      1.0  0.85600  0.48360  0.82890  1.0000
  C   C142      1.0  0.64400  0.98360  0.67110  1.0000
  C   C143      1.0  0.14400  0.51640  0.17110  1.0000
  C   C144      1.0  0.35600  0.01640  0.32890  1.0000
  H   H181      1.0  0.86680  0.53650  0.85760  1.0000
  H   H182      1.0  0.63320  0.03650  0.64240  1.0000
  H   H183      1.0  0.13320  0.46350  0.14240  1.0000
  H   H184      1.0  0.36680  0.96350  0.35760  1.0000
  C   C145      1.0  0.80790  0.39750  0.85258  1.0000
  C   C146      1.0  0.69210  0.89750  0.64742  1.0000
  C   C147      1.0  0.19210  0.60250  0.14742  1.0000
  C   C148      1.0  0.30790  0.10250  0.35258  1.0000
  H   H185      1.0  0.83910  0.37060  0.88640  1.0000
  H   H186      1.0  0.66090  0.87060  0.61360  1.0000
  H   H187      1.0  0.16090  0.62940  0.11360  1.0000
  H   H188      1.0  0.33910  0.12940  0.38640  1.0000
  H   H189      1.0  0.75550  0.42260  0.86330  1.0000
  H   H190      1.0  0.74450  0.92260  0.63670  1.0000
  H   H191      1.0  0.24450  0.57740  0.13670  1.0000
  H   H192      1.0  0.25550  0.07740  0.36330  1.0000
  C   C149      1.0  0.80890  0.52520  0.77650  1.0000
  C   C150      1.0  0.69110  0.02520  0.72350  1.0000
  C   C151      1.0  0.19110  0.47480  0.22350  1.0000
  C   C152      1.0  0.30890  0.97480  0.27650  1.0000
  H   H193      1.0  0.84080  0.57820  0.76080  1.0000
  H   H194      1.0  0.65920  0.07820  0.73920  1.0000
  H   H195      1.0  0.15920  0.42180  0.23920  1.0000
  H   H196      1.0  0.34080  0.92180  0.26080  1.0000
  H   H197      1.0  0.75730  0.55420  0.78620  1.0000
  H   H198      1.0  0.74270  0.05420  0.71380  1.0000
  H   H199      1.0  0.24270  0.44580  0.21380  1.0000
  H   H200      1.0  0.25730  0.94580  0.28620  1.0000
  C   C153      1.0  0.00620  0.32280  0.75422  1.0000
  C   C154      1.0  0.49380  0.82280  0.74578  1.0000
  C   C155      1.0  0.99380  0.67720  0.24578  1.0000
  C   C156      1.0  0.50620  0.17720  0.25422  1.0000
  H   H201      1.0  0.03500  0.37650  0.73650  1.0000
  H   H202      1.0  0.46500  0.87650  0.76350  1.0000
  H   H203      1.0  0.96500  0.62350  0.26350  1.0000
  H   H204      1.0  0.53500  0.12350  0.23650  1.0000
  H   H205      1.0  0.03880  0.30520  0.78960  1.0000
  H   H206      1.0  0.46120  0.80520  0.71040  1.0000
  H   H207      1.0  0.96120  0.69480  0.21040  1.0000
  H   H208      1.0  0.53880  0.19480  0.28960  1.0000
  C   C157      1.0  0.00130  0.23480  0.71637  1.0000
  C   C158      1.0  0.49870  0.73480  0.78363  1.0000
  C   C159      1.0  0.99870  0.76520  0.28363  1.0000
  C   C160      1.0  0.50130  0.26520  0.21637  1.0000
  C   C161      1.0  0.74290  0.23190  0.83223  1.0000
  C   C162      1.0  0.75710  0.73190  0.66777  1.0000
  C   C163      1.0  0.25710  0.76810  0.16777  1.0000
  C   C164      1.0  0.24290  0.26810  0.33223  1.0000
  H   H209      1.0  0.68730  0.25590  0.83610  1.0000
  H   H210      1.0  0.81270  0.75590  0.66390  1.0000
  H   H211      1.0  0.31270  0.74410  0.16390  1.0000
  H   H212      1.0  0.18730  0.24410  0.33610  1.0000
  H   H213      1.0  0.73860  0.17660  0.80520  1.0000
  H   H214      1.0  0.76140  0.67660  0.69480  1.0000
  H   H215      1.0  0.26140  0.82340  0.19480  1.0000
  H   H216      1.0  0.23860  0.32340  0.30520  1.0000
  C   C165      1.0  0.77940  0.19490  0.88724  1.0000
  C   C166      1.0  0.72060  0.69490  0.61276  1.0000
  C   C167      1.0  0.22060  0.80510  0.11276  1.0000
  C   C168      1.0  0.27940  0.30510  0.38724  1.0000
