data_image0
_chemical_formula_structural       U8O64C16H16C16
_chemical_formula_sum              "U8 O64 C32 H16"
_cell_length_a       22.6887
_cell_length_b       11.6505
_cell_length_c       9.1734
_cell_angle_alpha    90
_cell_angle_beta     107.31
_cell_angle_gamma    90

_space_group_name_H-M_alt    "P 1"
_space_group_IT_number       1

loop_
  _space_group_symop_operation_xyz
  'x, y, z'

loop_
  _atom_site_type_symbol
  _atom_site_label
  _atom_site_symmetry_multiplicity
  _atom_site_fract_x
  _atom_site_fract_y
  _atom_site_fract_z
  _atom_site_occupancy
  U   U1        1.0  0.30457  0.12851  0.29338  1.0000
  U   U2        1.0  0.69543  0.12851  0.20662  1.0000
  U   U3        1.0  0.80457  0.62851  0.29338  1.0000
  U   U4        1.0  0.19543  0.62851  0.20662  1.0000
  U   U5        1.0  0.69543  0.87149  0.70662  1.0000
  U   U6        1.0  0.30457  0.87149  0.79338  1.0000
  U   U7        1.0  0.19543  0.37149  0.70662  1.0000
  U   U8        1.0  0.80457  0.37149  0.79338  1.0000
  O   O1        1.0  0.31520  0.14230  0.11120  1.0000
  O   O2        1.0  0.68480  0.14230  0.38880  1.0000
  O   O3        1.0  0.81520  0.64230  0.11120  1.0000
  O   O4        1.0  0.18480  0.64230  0.38880  1.0000
  O   O5        1.0  0.68480  0.85770  0.88880  1.0000
  O   O6        1.0  0.31520  0.85770  0.61120  1.0000
  O   O7        1.0  0.18480  0.35770  0.88880  1.0000
  O   O8        1.0  0.81520  0.35770  0.61120  1.0000
  O   O9        1.0  0.29250  0.11690  0.47600  1.0000
  O   O10       1.0  0.70750  0.11690  0.02400  1.0000
  O   O11       1.0  0.79250  0.61690  0.47600  1.0000
  O   O12       1.0  0.20750  0.61690  0.02400  1.0000
  O   O13       1.0  0.70750  0.88310  0.52400  1.0000
  O   O14       1.0  0.29250  0.88310  0.97600  1.0000
  O   O15       1.0  0.20750  0.38310  0.52400  1.0000
  O   O16       1.0  0.79250  0.38310  0.97600  1.0000
  O   O17       1.0  0.40870  0.12960  0.40510  1.0000
  O   O18       1.0  0.59130  0.12960  0.09490  1.0000
  O   O19       1.0  0.90870  0.62960  0.40510  1.0000
  O   O20       1.0  0.09130  0.62960  0.09490  1.0000
  O   O21       1.0  0.59130  0.87040  0.59490  1.0000
  O   O22       1.0  0.40870  0.87040  0.90510  1.0000
  O   O23       1.0  0.09130  0.37040  0.59490  1.0000
  O   O24       1.0  0.90870  0.37040  0.90510  1.0000
  O   O25       1.0  0.49970  0.20530  0.42310  1.0000
  O   O26       1.0  0.50030  0.20530  0.07690  1.0000
  O   O27       1.0  0.99970  0.70530  0.42310  1.0000
  O   O28       1.0  0.00030  0.70530  0.07690  1.0000
  O   O29       1.0  0.50030  0.79470  0.57690  1.0000
  O   O30       1.0  0.49970  0.79470  0.92310  1.0000
  O   O31       1.0  0.00030  0.29470  0.57690  1.0000
  O   O32       1.0  0.99970  0.29470  0.92310  1.0000
  O   O33       1.0  0.21000  0.24560  0.21230  1.0000
  O   O34       1.0  0.79000  0.24560  0.28770  1.0000
  O   O35       1.0  0.71000  0.74560  0.21230  1.0000
  O   O36       1.0  0.29000  0.74560  0.28770  1.0000
  O   O37       1.0  0.79000  0.75440  0.78770  1.0000
  O   O38       1.0  0.21000  0.75440  0.71230  1.0000
  O   O39       1.0  0.29000  0.25440  0.78770  1.0000
  O   O40       1.0  0.71000  0.25440  0.71230  1.0000
  O   O41       1.0  0.17051  0.42350  0.19240  1.0000
  O   O42       1.0  0.82949  0.42350  0.30760  1.0000
  O   O43       1.0  0.67051  0.92350  0.19240  1.0000
  O   O44       1.0  0.32949  0.92350  0.30760  1.0000
  O   O45       1.0  0.82949  0.57650  0.80760  1.0000
  O   O46       1.0  0.17051  0.57650  0.69240  1.0000
  O   O47       1.0  0.32949  0.07650  0.80760  1.0000
  O   O48       1.0  0.67051  0.07650  0.69240  1.0000
  O   O49       1.0  0.32270  0.33110  0.33100  1.0000
  O   O50       1.0  0.67730  0.33110  0.16900  1.0000
  O   O51       1.0  0.82270  0.83110  0.33100  1.0000
  O   O52       1.0  0.17730  0.83110  0.16900  1.0000
  O   O53       1.0  0.67730  0.66890  0.66900  1.0000
  O   O54       1.0  0.32270  0.66890  0.83100  1.0000
  O   O55       1.0  0.17730  0.16890  0.66900  1.0000
  O   O56       1.0  0.82270  0.16890  0.83100  1.0000
  O   O57       1.0  0.28410  0.50860  0.31240  1.0000
  O   O58       1.0  0.71590  0.50860  0.18760  1.0000
  O   O59       1.0  0.78410  0.00860  0.31240  1.0000
  O   O60       1.0  0.21590  0.00860  0.18760  1.0000
  O   O61       1.0  0.71590  0.49140  0.68760  1.0000
  O   O62       1.0  0.28410  0.49140  0.81240  1.0000
  O   O63       1.0  0.21590  0.99140  0.68760  1.0000
  O   O64       1.0  0.78410  0.99140  0.81240  1.0000
  C   C1        1.0  0.46010  0.13250  0.37070  1.0000
  C   C2        1.0  0.53990  0.13250  0.12930  1.0000
  C   C3        1.0  0.96010  0.63250  0.37070  1.0000
  C   C4        1.0  0.03990  0.63250  0.12930  1.0000
  C   C5        1.0  0.53990  0.86750  0.62930  1.0000
  C   C6        1.0  0.46010  0.86750  0.87070  1.0000
  C   C7        1.0  0.03990  0.36750  0.62930  1.0000
  C   C8        1.0  0.96010  0.36750  0.87070  1.0000
  C   C9        1.0  0.46890  0.03700  0.26580  1.0000
  C   C10       1.0  0.53110  0.03700  0.23420  1.0000
  C   C11       1.0  0.96890  0.53700  0.26580  1.0000
  C   C12       1.0  0.03110  0.53700  0.23420  1.0000
  C   C13       1.0  0.53110  0.96300  0.73420  1.0000
  C   C14       1.0  0.46890  0.96300  0.76580  1.0000
  C   C15       1.0  0.03110  0.46300  0.73420  1.0000
  C   C16       1.0  0.96890  0.46300  0.76580  1.0000
  H   H1        1.0  0.43593  0.04338  0.16719  1.0000
  H   H2        1.0  0.56407  0.04338  0.33281  1.0000
  H   H3        1.0  0.93593  0.54338  0.16719  1.0000
  H   H4        1.0  0.06407  0.54338  0.33281  1.0000
  H   H5        1.0  0.56407  0.95662  0.83281  1.0000
  H   H6        1.0  0.43593  0.95662  0.66719  1.0000
  H   H7        1.0  0.06407  0.45662  0.83281  1.0000
  H   H8        1.0  0.93593  0.45662  0.66719  1.0000
  H   H9        1.0  0.46362  0.96233  0.31179  1.0000
  H   H10       1.0  0.53638  0.96233  0.18821  1.0000
  H   H11       1.0  0.96362  0.46233  0.31179  1.0000
  H   H12       1.0  0.03638  0.46233  0.18821  1.0000
  H   H13       1.0  0.53638  0.03767  0.68821  1.0000
  H   H14       1.0  0.46362  0.03767  0.81179  1.0000
  H   H15       1.0  0.03638  0.53767  0.68821  1.0000
  H   H16       1.0  0.96362  0.53767  0.81179  1.0000
  C   C17       1.0  0.21430  0.35310  0.22830  1.0000
  C   C18       1.0  0.78570  0.35310  0.27170  1.0000
  C   C19       1.0  0.71430  0.85310  0.22830  1.0000
  C   C20       1.0  0.28570  0.85310  0.27170  1.0000
  C   C21       1.0  0.78570  0.64690  0.77170  1.0000
  C   C22       1.0  0.21430  0.64690  0.72830  1.0000
  C   C23       1.0  0.28570  0.14690  0.77170  1.0000
  C   C24       1.0  0.71430  0.14690  0.72830  1.0000
  C   C25       1.0  0.27920  0.40100  0.29690  1.0000
  C   C26       1.0  0.72080  0.40100  0.20310  1.0000
  C   C27       1.0  0.77920  0.90100  0.29690  1.0000
  C   C28       1.0  0.22080  0.90100  0.20310  1.0000
  C   C29       1.0  0.72080  0.59900  0.70310  1.0000
  C   C30       1.0  0.27920  0.59900  0.79690  1.0000
  C   C31       1.0  0.22080  0.09900  0.70310  1.0000
  C   C32       1.0  0.77920  0.09900  0.79690  1.0000
