data_image0
_chemical_formula_structural       Bi8O64N16C8H16C16H16C16H16C8H16C8H16C16H16C8H4
_chemical_formula_sum              "Bi8 O64 N16 C80 H100"
_cell_length_a       25.12
_cell_length_b       9.079
_cell_length_c       13
_cell_angle_alpha    90
_cell_angle_beta     97.354
_cell_angle_gamma    90

_space_group_name_H-M_alt    "P 1"
_space_group_IT_number       1

loop_
  _space_group_symop_operation_xyz
  'x, y, z'

loop_
  _atom_site_type_symbol
  _atom_site_label
  _atom_site_symmetry_multiplicity
  _atom_site_fract_x
  _atom_site_fract_y
  _atom_site_fract_z
  _atom_site_occupancy
  Bi  Bi1       1.0  0.42847  0.48567  0.58564  1.0000
  Bi  Bi2       1.0  0.92847  0.98567  0.58564  1.0000
  Bi  Bi3       1.0  0.42847  0.51433  0.08564  1.0000
  Bi  Bi4       1.0  0.92847  0.01433  0.08564  1.0000
  Bi  Bi5       1.0  0.57153  0.51433  0.41435  1.0000
  Bi  Bi6       1.0  0.07153  0.01433  0.41435  1.0000
  Bi  Bi7       1.0  0.57153  0.48567  0.91435  1.0000
  Bi  Bi8       1.0  0.07153  0.98567  0.91435  1.0000
  O   O1        1.0  0.46220  0.22500  0.55570  1.0000
  O   O2        1.0  0.96220  0.72500  0.55570  1.0000
  O   O3        1.0  0.46220  0.77500  0.05570  1.0000
  O   O4        1.0  0.96220  0.27500  0.05570  1.0000
  O   O5        1.0  0.53780  0.77500  0.44430  1.0000
  O   O6        1.0  0.03780  0.27500  0.44430  1.0000
  O   O7        1.0  0.53780  0.22500  0.94430  1.0000
  O   O8        1.0  0.03780  0.72500  0.94430  1.0000
  O   O9        1.0  0.45870  0.03600  0.44550  1.0000
  O   O10       1.0  0.95870  0.53600  0.44550  1.0000
  O   O11       1.0  0.45870  0.96400  0.94550  1.0000
  O   O12       1.0  0.95870  0.46400  0.94550  1.0000
  O   O13       1.0  0.54130  0.96400  0.55450  1.0000
  O   O14       1.0  0.04130  0.46400  0.55450  1.0000
  O   O15       1.0  0.54130  0.03600  0.05450  1.0000
  O   O16       1.0  0.04130  0.53600  0.05450  1.0000
  O   O17       1.0  0.34945  0.45130  0.65730  1.0000
  O   O18       1.0  0.84945  0.95130  0.65730  1.0000
  O   O19       1.0  0.34945  0.54870  0.15730  1.0000
  O   O20       1.0  0.84945  0.04870  0.15730  1.0000
  O   O21       1.0  0.65055  0.54870  0.34270  1.0000
  O   O22       1.0  0.15055  0.04870  0.34270  1.0000
  O   O23       1.0  0.65055  0.45130  0.84270  1.0000
  O   O24       1.0  0.15055  0.95130  0.84270  1.0000
  O   O25       1.0  0.28160  0.30110  0.67520  1.0000
  O   O26       1.0  0.78160  0.80110  0.67520  1.0000
  O   O27       1.0  0.28160  0.69890  0.17520  1.0000
  O   O28       1.0  0.78160  0.19890  0.17520  1.0000
  O   O29       1.0  0.71840  0.69890  0.32480  1.0000
  O   O30       1.0  0.21840  0.19890  0.32480  1.0000
  O   O31       1.0  0.71840  0.30110  0.82480  1.0000
  O   O32       1.0  0.21840  0.80110  0.82480  1.0000
  O   O33       1.0  0.45460  0.52210  0.42300  1.0000
  O   O34       1.0  0.95460  0.02210  0.42300  1.0000
  O   O35       1.0  0.45460  0.47790  0.92300  1.0000
  O   O36       1.0  0.95460  0.97790  0.92300  1.0000
  O   O37       1.0  0.54540  0.47790  0.57700  1.0000
  O   O38       1.0  0.04540  0.97790  0.57700  1.0000
  O   O39       1.0  0.54540  0.52210  0.07700  1.0000
  O   O40       1.0  0.04540  0.02210  0.07700  1.0000
  O   O41       1.0  0.44520  0.65080  0.27600  1.0000
  O   O42       1.0  0.94520  0.15080  0.27600  1.0000
  O   O43       1.0  0.44520  0.34920  0.77600  1.0000
  O   O44       1.0  0.94520  0.84920  0.77600  1.0000
  O   O45       1.0  0.55480  0.34920  0.72400  1.0000
  O   O46       1.0  0.05480  0.84920  0.72400  1.0000
  O   O47       1.0  0.55480  0.65080  0.22400  1.0000
  O   O48       1.0  0.05480  0.15080  0.22400  1.0000
  O   O49       1.0  0.43440  0.72920  0.65140  1.0000
  O   O50       1.0  0.93440  0.22920  0.65140  1.0000
  O   O51       1.0  0.43440  0.27080  0.15140  1.0000
  O   O52       1.0  0.93440  0.77080  0.15140  1.0000
  O   O53       1.0  0.56560  0.27080  0.34860  1.0000
  O   O54       1.0  0.06560  0.77080  0.34860  1.0000
  O   O55       1.0  0.56560  0.72920  0.84860  1.0000
  O   O56       1.0  0.06560  0.22920  0.84860  1.0000
  O   O57       1.0  0.39440  0.94530  0.66520  1.0000
  O   O58       1.0  0.89440  0.44530  0.66520  1.0000
  O   O59       1.0  0.39440  0.05470  0.16520  1.0000
  O   O60       1.0  0.89440  0.55470  0.16520  1.0000
  O   O61       1.0  0.60560  0.05470  0.33480  1.0000
  O   O62       1.0  0.10560  0.55470  0.33480  1.0000
  O   O63       1.0  0.60560  0.94530  0.83480  1.0000
  O   O64       1.0  0.10560  0.44530  0.83480  1.0000
  N   N1        1.0  0.36390  0.32820  0.46860  1.0000
  N   N2        1.0  0.86390  0.82820  0.46860  1.0000
  N   N3        1.0  0.36390  0.67180  0.96860  1.0000
  N   N4        1.0  0.86390  0.17180  0.96860  1.0000
  N   N5        1.0  0.63610  0.67180  0.53140  1.0000
  N   N6        1.0  0.13610  0.17180  0.53140  1.0000
  N   N7        1.0  0.63610  0.32820  0.03140  1.0000
  N   N8        1.0  0.13610  0.82820  0.03140  1.0000
  N   N9        1.0  0.36300  0.65090  0.48660  1.0000
  N   N10       1.0  0.86300  0.15090  0.48660  1.0000
  N   N11       1.0  0.36300  0.34910  0.98660  1.0000
  N   N12       1.0  0.86300  0.84910  0.98660  1.0000
  N   N13       1.0  0.63700  0.34910  0.51340  1.0000
  N   N14       1.0  0.13700  0.84910  0.51340  1.0000
  N   N15       1.0  0.63700  0.65090  0.01340  1.0000
  N   N16       1.0  0.13700  0.15090  0.01340  1.0000
  C   C1        1.0  0.39310  0.21990  0.41160  1.0000
  C   C2        1.0  0.89310  0.71990  0.41160  1.0000
  C   C3        1.0  0.39310  0.78010  0.91160  1.0000
  C   C4        1.0  0.89310  0.28010  0.91160  1.0000
  C   C5        1.0  0.60690  0.78010  0.58840  1.0000
  C   C6        1.0  0.10690  0.28010  0.58840  1.0000
  C   C7        1.0  0.60690  0.21990  0.08840  1.0000
  C   C8        1.0  0.10690  0.71990  0.08840  1.0000
  H   H1        1.0  0.40440  0.26710  0.35110  1.0000
  H   H2        1.0  0.90440  0.76710  0.35110  1.0000
  H   H3        1.0  0.40440  0.73290  0.85110  1.0000
  H   H4        1.0  0.90440  0.23290  0.85110  1.0000
  H   H5        1.0  0.59560  0.73290  0.64890  1.0000
  H   H6        1.0  0.09560  0.23290  0.64890  1.0000
  H   H7        1.0  0.59560  0.26710  0.14890  1.0000
  H   H8        1.0  0.09560  0.76710  0.14890  1.0000
  H   H9        1.0  0.36900  0.14000  0.38770  1.0000
  H   H10       1.0  0.86900  0.64000  0.38770  1.0000
  H   H11       1.0  0.36900  0.86000  0.88770  1.0000
  H   H12       1.0  0.86900  0.36000  0.88770  1.0000
  H   H13       1.0  0.63100  0.86000  0.61230  1.0000
  H   H14       1.0  0.13100  0.36000  0.61230  1.0000
  H   H15       1.0  0.63100  0.14000  0.11230  1.0000
  H   H16       1.0  0.13100  0.64000  0.11230  1.0000
  C   C9        1.0  0.44100  0.15830  0.47680  1.0000
  C   C10       1.0  0.94100  0.65830  0.47680  1.0000
  C   C11       1.0  0.44100  0.84170  0.97680  1.0000
  C   C12       1.0  0.94100  0.34170  0.97680  1.0000
  C   C13       1.0  0.55900  0.84170  0.52320  1.0000
  C   C14       1.0  0.05900  0.34170  0.52320  1.0000
  C   C15       1.0  0.55900  0.15830  0.02320  1.0000
  C   C16       1.0  0.05900  0.65830  0.02320  1.0000
  C   C17       1.0  0.33230  0.24860  0.53960  1.0000
  C   C18       1.0  0.83230  0.74860  0.53960  1.0000
  C   C19       1.0  0.33230  0.75140  0.03960  1.0000
  C   C20       1.0  0.83230  0.25140  0.03960  1.0000
  C   C21       1.0  0.66770  0.75140  0.46040  1.0000
  C   C22       1.0  0.16770  0.25140  0.46040  1.0000
  C   C23       1.0  0.66770  0.24860  0.96040  1.0000
  C   C24       1.0  0.16770  0.74860  0.96040  1.0000
  H   H17       1.0  0.35230  0.16240  0.56650  1.0000
  H   H18       1.0  0.85230  0.66240  0.56650  1.0000
  H   H19       1.0  0.35230  0.83760  0.06650  1.0000
  H   H20       1.0  0.85230  0.33760  0.06650  1.0000
  H   H21       1.0  0.64770  0.83760  0.43350  1.0000
  H   H22       1.0  0.14770  0.33760  0.43350  1.0000
  H   H23       1.0  0.64770  0.16240  0.93350  1.0000
  H   H24       1.0  0.14770  0.66240  0.93350  1.0000
  H   H25       1.0  0.29900  0.21490  0.50070  1.0000
  H   H26       1.0  0.79900  0.71490  0.50070  1.0000
  H   H27       1.0  0.29900  0.78510  0.00070  1.0000
  H   H28       1.0  0.79900  0.28510  0.00070  1.0000
  H   H29       1.0  0.70100  0.78510  0.49930  1.0000
  H   H30       1.0  0.20100  0.28510  0.49930  1.0000
  H   H31       1.0  0.70100  0.21490  0.99930  1.0000
  H   H32       1.0  0.20100  0.71490  0.99930  1.0000
  C   C25       1.0  0.31940  0.34190  0.62980  1.0000
  C   C26       1.0  0.81940  0.84190  0.62980  1.0000
  C   C27       1.0  0.31940  0.65810  0.12980  1.0000
  C   C28       1.0  0.81940  0.15810  0.12980  1.0000
  C   C29       1.0  0.68060  0.65810  0.37020  1.0000
  C   C30       1.0  0.18060  0.15810  0.37020  1.0000
  C   C31       1.0  0.68060  0.34190  0.87020  1.0000
  C   C32       1.0  0.18060  0.84190  0.87020  1.0000
  C   C33       1.0  0.32940  0.42370  0.39350  1.0000
  C   C34       1.0  0.82940  0.92370  0.39350  1.0000
  C   C35       1.0  0.32940  0.57630  0.89350  1.0000
  C   C36       1.0  0.82940  0.07630  0.89350  1.0000
  C   C37       1.0  0.67060  0.57630  0.60650  1.0000
  C   C38       1.0  0.17060  0.07630  0.60650  1.0000
  C   C39       1.0  0.67060  0.42370  0.10650  1.0000
  C   C40       1.0  0.17060  0.92370  0.10650  1.0000
  H   H33       1.0  0.34830  0.44390  0.33440  1.0000
  H   H34       1.0  0.84830  0.94390  0.33440  1.0000
  H   H35       1.0  0.34830  0.55610  0.83440  1.0000
  H   H36       1.0  0.84830  0.05610  0.83440  1.0000
  H   H37       1.0  0.65170  0.55610  0.66560  1.0000
  H   H38       1.0  0.15170  0.05610  0.66560  1.0000
  H   H39       1.0  0.65170  0.44390  0.16560  1.0000
  H   H40       1.0  0.15170  0.94390  0.16560  1.0000
  H   H41       1.0  0.29680  0.37070  0.36840  1.0000
  H   H42       1.0  0.79680  0.87070  0.36840  1.0000
  H   H43       1.0  0.29680  0.62930  0.86840  1.0000
  H   H44       1.0  0.79680  0.12930  0.86840  1.0000
  H   H45       1.0  0.70320  0.62930  0.63160  1.0000
  H   H46       1.0  0.20320  0.12930  0.63160  1.0000
  H   H47       1.0  0.70320  0.37070  0.13160  1.0000
  H   H48       1.0  0.20320  0.87070  0.13160  1.0000
  C   C41       1.0  0.31490  0.56550  0.43970  1.0000
  C   C42       1.0  0.81490  0.06550  0.43970  1.0000
  C   C43       1.0  0.31490  0.43450  0.93970  1.0000
  C   C44       1.0  0.81490  0.93450  0.93970  1.0000
  C   C45       1.0  0.68510  0.43450  0.56030  1.0000
  C   C46       1.0  0.18510  0.93450  0.56030  1.0000
  C   C47       1.0  0.68510  0.56550  0.06030  1.0000
  C   C48       1.0  0.18510  0.06550  0.06030  1.0000
  H   H49       1.0  0.29210  0.54580  0.49280  1.0000
  H   H50       1.0  0.79210  0.04580  0.49280  1.0000
  H   H51       1.0  0.29210  0.45420  0.99280  1.0000
  H   H52       1.0  0.79210  0.95420  0.99280  1.0000
  H   H53       1.0  0.70790  0.45420  0.50720  1.0000
  H   H54       1.0  0.20790  0.95420  0.50720  1.0000
  H   H55       1.0  0.70790  0.54580  0.00720  1.0000
  H   H56       1.0  0.20790  0.04580  0.00720  1.0000
  H   H57       1.0  0.29460  0.62490  0.38640  1.0000
  H   H58       1.0  0.79460  0.12490  0.38640  1.0000
  H   H59       1.0  0.29460  0.37510  0.88640  1.0000
  H   H60       1.0  0.79460  0.87510  0.88640  1.0000
  H   H61       1.0  0.70540  0.37510  0.61360  1.0000
  H   H62       1.0  0.20540  0.87510  0.61360  1.0000
  H   H63       1.0  0.70540  0.62490  0.11360  1.0000
  H   H64       1.0  0.20540  0.12490  0.11360  1.0000
  C   C49       1.0  0.39120  0.71800  0.40120  1.0000
  C   C50       1.0  0.89120  0.21800  0.40120  1.0000
  C   C51       1.0  0.39120  0.28200  0.90120  1.0000
  C   C52       1.0  0.89120  0.78200  0.90120  1.0000
  C   C53       1.0  0.60880  0.28200  0.59880  1.0000
  C   C54       1.0  0.10880  0.78200  0.59880  1.0000
  C   C55       1.0  0.60880  0.71800  0.09880  1.0000
  C   C56       1.0  0.10880  0.21800  0.09880  1.0000
  H   H65       1.0  0.36430  0.74340  0.34350  1.0000
  H   H66       1.0  0.86430  0.24340  0.34350  1.0000
  H   H67       1.0  0.36430  0.25660  0.84350  1.0000
  H   H68       1.0  0.86430  0.75660  0.84350  1.0000
  H   H69       1.0  0.63570  0.25660  0.65650  1.0000
  H   H70       1.0  0.13570  0.75660  0.65650  1.0000
  H   H71       1.0  0.63570  0.74340  0.15650  1.0000
  H   H72       1.0  0.13570  0.24340  0.15650  1.0000
  H   H73       1.0  0.40850  0.80860  0.42700  1.0000
  H   H74       1.0  0.90850  0.30860  0.42700  1.0000
  H   H75       1.0  0.40850  0.19140  0.92700  1.0000
  H   H76       1.0  0.90850  0.69140  0.92700  1.0000
  H   H77       1.0  0.59150  0.19140  0.57300  1.0000
  H   H78       1.0  0.09150  0.69140  0.57300  1.0000
  H   H79       1.0  0.59150  0.80860  0.07300  1.0000
  H   H80       1.0  0.09150  0.30860  0.07300  1.0000
  C   C57       1.0  0.43220  0.62170  0.36200  1.0000
  C   C58       1.0  0.93220  0.12170  0.36200  1.0000
  C   C59       1.0  0.43220  0.37830  0.86200  1.0000
  C   C60       1.0  0.93220  0.87830  0.86200  1.0000
  C   C61       1.0  0.56780  0.37830  0.63800  1.0000
  C   C62       1.0  0.06780  0.87830  0.63800  1.0000
  C   C63       1.0  0.56780  0.62170  0.13800  1.0000
  C   C64       1.0  0.06780  0.12170  0.13800  1.0000
  C   C65       1.0  0.34760  0.76650  0.55740  1.0000
  C   C66       1.0  0.84760  0.26650  0.55740  1.0000
  C   C67       1.0  0.34760  0.23350  0.05740  1.0000
  C   C68       1.0  0.84760  0.73350  0.05740  1.0000
  C   C69       1.0  0.65240  0.23350  0.44260  1.0000
  C   C70       1.0  0.15240  0.73350  0.44260  1.0000
  C   C71       1.0  0.65240  0.76650  0.94260  1.0000
  C   C72       1.0  0.15240  0.26650  0.94260  1.0000
  H   H81       1.0  0.32070  0.72770  0.59740  1.0000
  H   H82       1.0  0.82070  0.22770  0.59740  1.0000
  H   H83       1.0  0.32070  0.27230  0.09740  1.0000
  H   H84       1.0  0.82070  0.77230  0.09740  1.0000
  H   H85       1.0  0.67930  0.27230  0.40260  1.0000
  H   H86       1.0  0.17930  0.77230  0.40260  1.0000
  H   H87       1.0  0.67930  0.72770  0.90260  1.0000
  H   H88       1.0  0.17930  0.22770  0.90260  1.0000
  H   H89       1.0  0.33190  0.84900  0.51690  1.0000
  H   H90       1.0  0.83190  0.34900  0.51690  1.0000
  H   H91       1.0  0.33190  0.15100  0.01690  1.0000
  H   H92       1.0  0.83190  0.65100  0.01690  1.0000
  H   H93       1.0  0.66810  0.15100  0.48310  1.0000
  H   H94       1.0  0.16810  0.65100  0.48310  1.0000
  H   H95       1.0  0.66810  0.84900  0.98310  1.0000
  H   H96       1.0  0.16810  0.34900  0.98310  1.0000
  C   C73       1.0  0.39490  0.81850  0.62960  1.0000
  C   C74       1.0  0.89490  0.31850  0.62960  1.0000
  C   C75       1.0  0.39490  0.18150  0.12960  1.0000
  C   C76       1.0  0.89490  0.68150  0.12960  1.0000
  C   C77       1.0  0.60510  0.18150  0.37040  1.0000
  C   C78       1.0  0.10510  0.68150  0.37040  1.0000
  C   C79       1.0  0.60510  0.81850  0.87040  1.0000
  C   C80       1.0  0.10510  0.31850  0.87040  1.0000
  H   H97       1.0  0.50000  0.00000  0.50000  1.0000
  H   H98       1.0  0.00000  0.50000  0.50000  1.0000
  H   H99       1.0  0.50000  0.00000  0.00000  1.0000
  H   H100      1.0  0.00000  0.50000  0.00000  1.0000
