data_image0
_chemical_formula_structural       Np4O32C32H4C8H8C4H4C4H4C4H8C4H4C8O8
_chemical_formula_sum              "Np4 O40 C64 H32"
_cell_length_a       10.591
_cell_length_b       19.5646
_cell_length_c       14.7254
_cell_angle_alpha    90
_cell_angle_beta     108.374
_cell_angle_gamma    90

_space_group_name_H-M_alt    "P 1"
_space_group_IT_number       1

loop_
  _space_group_symop_operation_xyz
  'x, y, z'

loop_
  _atom_site_type_symbol
  _atom_site_label
  _atom_site_symmetry_multiplicity
  _atom_site_fract_x
  _atom_site_fract_y
  _atom_site_fract_z
  _atom_site_occupancy
  Np  Np1       1.0  0.23639  0.11275  0.48836  1.0000
  Np  Np2       1.0  0.26360  0.61275  0.01164  1.0000
  Np  Np3       1.0  0.76360  0.88725  0.51164  1.0000
  Np  Np4       1.0  0.73640  0.38725  0.98836  1.0000
  O   O1        1.0  0.39520  0.11462  0.58659  1.0000
  O   O2        1.0  0.10480  0.61462  0.91341  1.0000
  O   O3        1.0  0.60480  0.88538  0.41341  1.0000
  O   O4        1.0  0.89520  0.38538  0.08659  1.0000
  O   O5        1.0  0.07710  0.11097  0.38941  1.0000
  O   O6        1.0  0.42290  0.61097  0.11059  1.0000
  O   O7        1.0  0.92290  0.88903  0.61059  1.0000
  O   O8        1.0  0.57710  0.38903  0.88941  1.0000
  O   O9        1.0  0.29330  0.99786  0.43708  1.0000
  O   O10       1.0  0.20670  0.49786  0.06292  1.0000
  O   O11       1.0  0.70670  0.00214  0.56292  1.0000
  O   O12       1.0  0.79330  0.50214  0.93708  1.0000
  O   O13       1.0  0.18840  0.99810  0.54472  1.0000
  O   O14       1.0  0.31160  0.49810  0.95528  1.0000
  O   O15       1.0  0.81160  0.00190  0.45528  1.0000
  O   O16       1.0  0.68840  0.50190  0.04472  1.0000
  O   O17       1.0  0.35230  0.12164  0.36540  1.0000
  O   O18       1.0  0.14770  0.62164  0.13460  1.0000
  O   O19       1.0  0.64770  0.87836  0.63460  1.0000
  O   O20       1.0  0.85230  0.37836  0.86540  1.0000
  O   O21       1.0  0.29410  0.22233  0.40593  1.0000
  O   O22       1.0  0.20590  0.72233  0.09407  1.0000
  O   O23       1.0  0.70590  0.77767  0.59407  1.0000
  O   O24       1.0  0.79410  0.27767  0.90593  1.0000
  O   O25       1.0  0.16960  0.22266  0.56489  1.0000
  O   O26       1.0  0.33040  0.72266  0.93511  1.0000
  O   O27       1.0  0.83040  0.77734  0.43511  1.0000
  O   O28       1.0  0.66960  0.27734  0.06489  1.0000
  O   O29       1.0  0.12120  0.12227  0.61204  1.0000
  O   O30       1.0  0.37880  0.62227  0.88796  1.0000
  O   O31       1.0  0.87880  0.87773  0.38796  1.0000
  O   O32       1.0  0.62120  0.37773  0.11204  1.0000
  C   C1        1.0  0.24360  0.96565  0.49330  1.0000
  C   C2        1.0  0.25640  0.46565  0.00670  1.0000
  C   C3        1.0  0.75640  0.03435  0.50670  1.0000
  C   C4        1.0  0.74360  0.53435  0.99330  1.0000
  C   C5        1.0  0.35150  0.18597  0.35891  1.0000
  C   C6        1.0  0.14850  0.68597  0.14109  1.0000
  C   C7        1.0  0.64850  0.81403  0.64109  1.0000
  C   C8        1.0  0.85150  0.31403  0.85891  1.0000
  C   C9        1.0  0.25310  0.88955  0.49917  1.0000
  C   C10       1.0  0.24690  0.38955  0.00083  1.0000
  C   C11       1.0  0.74690  0.11045  0.50083  1.0000
  C   C12       1.0  0.75310  0.61045  0.99917  1.0000
  C   C13       1.0  0.41810  0.21929  0.29481  1.0000
  C   C14       1.0  0.08190  0.71929  0.20519  1.0000
  C   C15       1.0  0.58190  0.78071  0.70519  1.0000
  C   C16       1.0  0.91810  0.28071  0.79481  1.0000
  C   C17       1.0  0.20440  0.85440  0.56240  1.0000
  C   C18       1.0  0.29560  0.35440  0.93760  1.0000
  C   C19       1.0  0.79560  0.14560  0.43760  1.0000
  C   C20       1.0  0.70440  0.64560  0.06240  1.0000
  C   C21       1.0  0.31200  0.85365  0.44180  1.0000
  C   C22       1.0  0.18800  0.35365  0.05820  1.0000
  C   C23       1.0  0.68800  0.14635  0.55820  1.0000
  C   C24       1.0  0.81200  0.64635  0.94180  1.0000
  C   C25       1.0  0.46280  0.17893  0.23280  1.0000
  C   C26       1.0  0.03720  0.67893  0.26720  1.0000
  C   C27       1.0  0.53720  0.82107  0.76720  1.0000
  C   C28       1.0  0.96280  0.32107  0.73280  1.0000
  C   C29       1.0  0.43700  0.28984  0.29690  1.0000
  C   C30       1.0  0.06300  0.78984  0.20310  1.0000
  C   C31       1.0  0.56300  0.71016  0.70310  1.0000
  C   C32       1.0  0.93700  0.21016  0.79690  1.0000
  H   H1        1.0  0.16450  0.87860  0.60220  1.0000
  H   H2        1.0  0.33550  0.37860  0.89780  1.0000
  H   H3        1.0  0.83550  0.12140  0.39780  1.0000
  H   H4        1.0  0.66450  0.62140  0.10220  1.0000
  C   C33       1.0  0.21370  0.78356  0.56780  1.0000
  C   C34       1.0  0.28630  0.28356  0.93220  1.0000
  C   C35       1.0  0.78630  0.21644  0.43220  1.0000
  C   C36       1.0  0.71370  0.71644  0.06780  1.0000
  C   C37       1.0  0.32250  0.78355  0.44800  1.0000
  C   C38       1.0  0.17750  0.28355  0.05200  1.0000
  C   C39       1.0  0.67750  0.21645  0.55200  1.0000
  C   C40       1.0  0.82250  0.71645  0.94800  1.0000
  H   H5        1.0  0.34520  0.87760  0.39800  1.0000
  H   H6        1.0  0.15480  0.37760  0.10200  1.0000
  H   H7        1.0  0.65480  0.12240  0.60200  1.0000
  H   H8        1.0  0.84520  0.62240  0.89800  1.0000
  H   H9        1.0  0.44940  0.13090  0.23070  1.0000
  H   H10       1.0  0.05060  0.63090  0.26930  1.0000
  H   H11       1.0  0.55060  0.86910  0.76930  1.0000
  H   H12       1.0  0.94940  0.36910  0.73070  1.0000
  C   C41       1.0  0.52700  0.20958  0.17430  1.0000
  C   C42       1.0  0.97300  0.70958  0.32570  1.0000
  C   C43       1.0  0.47300  0.79042  0.82570  1.0000
  C   C44       1.0  0.02700  0.29042  0.67430  1.0000
  H   H13       1.0  0.40620  0.31730  0.33880  1.0000
  H   H14       1.0  0.09380  0.81730  0.16120  1.0000
  H   H15       1.0  0.59380  0.68270  0.66120  1.0000
  H   H16       1.0  0.90620  0.18270  0.83880  1.0000
  C   C45       1.0  0.50050  0.32005  0.23830  1.0000
  C   C46       1.0  0.99950  0.82005  0.26170  1.0000
  C   C47       1.0  0.49950  0.67995  0.76170  1.0000
  C   C48       1.0  0.00050  0.17995  0.73830  1.0000
  H   H17       1.0  0.17950  0.75980  0.61120  1.0000
  H   H18       1.0  0.32050  0.25980  0.88880  1.0000
  H   H19       1.0  0.82050  0.24020  0.38880  1.0000
  H   H20       1.0  0.67950  0.74020  0.11120  1.0000
  C   C49       1.0  0.27210  0.74700  0.51080  1.0000
  C   C50       1.0  0.22790  0.24700  0.98920  1.0000
  C   C51       1.0  0.72790  0.25300  0.48920  1.0000
  C   C52       1.0  0.77210  0.75300  0.01080  1.0000
  H   H21       1.0  0.36460  0.75970  0.40930  1.0000
  H   H22       1.0  0.13540  0.25970  0.09070  1.0000
  H   H23       1.0  0.63540  0.24030  0.59070  1.0000
  H   H24       1.0  0.86460  0.74030  0.90930  1.0000
  H   H25       1.0  0.55770  0.18230  0.13210  1.0000
  H   H26       1.0  0.94230  0.68230  0.36790  1.0000
  H   H27       1.0  0.44230  0.81770  0.86790  1.0000
  H   H28       1.0  0.05770  0.31770  0.63210  1.0000
  C   C53       1.0  0.54650  0.28025  0.17705  1.0000
  C   C54       1.0  0.95350  0.78025  0.32295  1.0000
  C   C55       1.0  0.45350  0.71975  0.82295  1.0000
  C   C56       1.0  0.04650  0.21975  0.67705  1.0000
  H   H29       1.0  0.51280  0.36820  0.23990  1.0000
  H   H30       1.0  0.98720  0.86820  0.26010  1.0000
  H   H31       1.0  0.48720  0.63180  0.76010  1.0000
  H   H32       1.0  0.01280  0.13180  0.73990  1.0000
  C   C57       1.0  0.28300  0.67118  0.51560  1.0000
  C   C58       1.0  0.21700  0.17118  0.98440  1.0000
  C   C59       1.0  0.71700  0.32882  0.48440  1.0000
  C   C60       1.0  0.78300  0.82882  0.01560  1.0000
  C   C61       1.0  0.61590  0.31343  0.11461  1.0000
  C   C62       1.0  0.88410  0.81343  0.38539  1.0000
  C   C63       1.0  0.38410  0.68657  0.88539  1.0000
  C   C64       1.0  0.11590  0.18657  0.61461  1.0000
  O   O33       1.0  0.36630  0.64168  0.48390  1.0000
  O   O34       1.0  0.13370  0.14168  0.01610  1.0000
  O   O35       1.0  0.63370  0.35832  0.51610  1.0000
  O   O36       1.0  0.86630  0.85832  0.98390  1.0000
  O   O37       1.0  0.21060  0.63850  0.55490  1.0000
  O   O38       1.0  0.28940  0.13850  0.94510  1.0000
  O   O39       1.0  0.78940  0.36150  0.44510  1.0000
  O   O40       1.0  0.71060  0.86150  0.05490  1.0000
