data_image0
_chemical_formula_structural       Co2Fe2O24C12H12
_chemical_formula_sum              "Co2 Fe2 O24 C12 H12"
_cell_length_a       8.2158
_cell_length_b       8.2158
_cell_length_c       13.6791
_cell_angle_alpha    90
_cell_angle_beta     90
_cell_angle_gamma    120

_space_group_name_H-M_alt    "P 1"
_space_group_IT_number       1

loop_
  _space_group_symop_operation_xyz
  'x, y, z'

loop_
  _atom_site_type_symbol
  _atom_site_label
  _atom_site_symmetry_multiplicity
  _atom_site_fract_x
  _atom_site_fract_y
  _atom_site_fract_z
  _atom_site_occupancy
  Co  Co1       1.0  0.66670  0.33330  0.25000  1.0000
  Co  Co2       1.0  0.33330  0.66670  0.75000  1.0000
  Fe  Fe1       1.0  0.00000  0.00000  0.00000  1.0000
  Fe  Fe2       1.0  0.00000  0.00000  0.50000  1.0000
  O   O1        1.0  0.88334  0.34348  0.16803  1.0000
  O   O2        1.0  0.65652  0.53986  0.16803  1.0000
  O   O3        1.0  0.46014  0.11666  0.16803  1.0000
  O   O4        1.0  0.65652  0.11666  0.33197  1.0000
  O   O5        1.0  0.46014  0.34348  0.33197  1.0000
  O   O6        1.0  0.88334  0.53986  0.33197  1.0000
  O   O7        1.0  0.11666  0.65652  0.83197  1.0000
  O   O8        1.0  0.34348  0.46014  0.83197  1.0000
  O   O9        1.0  0.53986  0.88334  0.83197  1.0000
  O   O10       1.0  0.34348  0.88334  0.66803  1.0000
  O   O11       1.0  0.53986  0.65652  0.66803  1.0000
  O   O12       1.0  0.11666  0.46014  0.66803  1.0000
  O   O13       1.0  0.01315  0.20893  0.08297  1.0000
  O   O14       1.0  0.79107  0.80422  0.08297  1.0000
  O   O15       1.0  0.19578  0.98685  0.08297  1.0000
  O   O16       1.0  0.79107  0.98685  0.41703  1.0000
  O   O17       1.0  0.19578  0.20893  0.41703  1.0000
  O   O18       1.0  0.01315  0.80422  0.41703  1.0000
  O   O19       1.0  0.98685  0.79107  0.91703  1.0000
  O   O20       1.0  0.20893  0.19578  0.91703  1.0000
  O   O21       1.0  0.80422  0.01315  0.91703  1.0000
  O   O22       1.0  0.20893  0.01315  0.58297  1.0000
  O   O23       1.0  0.80422  0.79107  0.58297  1.0000
  O   O24       1.0  0.98685  0.19578  0.58297  1.0000
  C   C1        1.0  0.87327  0.21002  0.12029  1.0000
  C   C2        1.0  0.78998  0.66325  0.12029  1.0000
  C   C3        1.0  0.33675  0.12673  0.12029  1.0000
  C   C4        1.0  0.78998  0.12673  0.37971  1.0000
  C   C5        1.0  0.33675  0.21002  0.37971  1.0000
  C   C6        1.0  0.87327  0.66325  0.37971  1.0000
  C   C7        1.0  0.12673  0.78998  0.87971  1.0000
  C   C8        1.0  0.21002  0.33675  0.87971  1.0000
  C   C9        1.0  0.66325  0.87327  0.87971  1.0000
  C   C10       1.0  0.21002  0.87327  0.62029  1.0000
  C   C11       1.0  0.66325  0.78998  0.62029  1.0000
  C   C12       1.0  0.12673  0.33675  0.62029  1.0000
  H   H1        1.0  0.75530  0.10440  0.11160  1.0000
  H   H2        1.0  0.89560  0.65090  0.11160  1.0000
  H   H3        1.0  0.34910  0.24470  0.11160  1.0000
  H   H4        1.0  0.89560  0.24470  0.38840  1.0000
  H   H5        1.0  0.34910  0.10440  0.38840  1.0000
  H   H6        1.0  0.75530  0.65090  0.38840  1.0000
  H   H7        1.0  0.24470  0.89560  0.88840  1.0000
  H   H8        1.0  0.10440  0.34910  0.88840  1.0000
  H   H9        1.0  0.65090  0.75530  0.88840  1.0000
  H   H10       1.0  0.10440  0.75530  0.61160  1.0000
  H   H11       1.0  0.65090  0.89560  0.61160  1.0000
  H   H12       1.0  0.24470  0.34910  0.61160  1.0000
