data_image0
_chemical_formula_structural       Mn2Fe2O24C12H12
_chemical_formula_sum              "Mn2 Fe2 O24 C12 H12"
_cell_length_a       8.2744
_cell_length_b       8.2744
_cell_length_c       13.8904
_cell_angle_alpha    90
_cell_angle_beta     90
_cell_angle_gamma    120

_space_group_name_H-M_alt    "P 1"
_space_group_IT_number       1

loop_
  _space_group_symop_operation_xyz
  'x, y, z'

loop_
  _atom_site_type_symbol
  _atom_site_label
  _atom_site_symmetry_multiplicity
  _atom_site_fract_x
  _atom_site_fract_y
  _atom_site_fract_z
  _atom_site_occupancy
  Mn  Mn1       1.0  0.66670  0.33330  0.25000  1.0000
  Mn  Mn2       1.0  0.33330  0.66670  0.75000  1.0000
  Fe  Fe1       1.0  0.00000  0.00000  0.00000  1.0000
  Fe  Fe2       1.0  0.00000  0.00000  0.50000  1.0000
  O   O1        1.0  0.88898  0.34220  0.16603  1.0000
  O   O2        1.0  0.65780  0.54678  0.16603  1.0000
  O   O3        1.0  0.45322  0.11102  0.16603  1.0000
  O   O4        1.0  0.65780  0.11102  0.33397  1.0000
  O   O5        1.0  0.45322  0.34220  0.33397  1.0000
  O   O6        1.0  0.88898  0.54678  0.33397  1.0000
  O   O7        1.0  0.11102  0.65780  0.83397  1.0000
  O   O8        1.0  0.34220  0.45322  0.83397  1.0000
  O   O9        1.0  0.54678  0.88898  0.83397  1.0000
  O   O10       1.0  0.34220  0.88898  0.66603  1.0000
  O   O11       1.0  0.54678  0.65780  0.66603  1.0000
  O   O12       1.0  0.11102  0.45322  0.66603  1.0000
  O   O13       1.0  0.01577  0.20817  0.08187  1.0000
  O   O14       1.0  0.79183  0.80760  0.08187  1.0000
  O   O15       1.0  0.19240  0.98423  0.08187  1.0000
  O   O16       1.0  0.79183  0.98423  0.41813  1.0000
  O   O17       1.0  0.19240  0.20817  0.41813  1.0000
  O   O18       1.0  0.01577  0.80760  0.41813  1.0000
  O   O19       1.0  0.98423  0.79183  0.91813  1.0000
  O   O20       1.0  0.20817  0.19240  0.91813  1.0000
  O   O21       1.0  0.80760  0.01577  0.91813  1.0000
  O   O22       1.0  0.20817  0.01577  0.58187  1.0000
  O   O23       1.0  0.80760  0.79183  0.58187  1.0000
  O   O24       1.0  0.98423  0.19240  0.58187  1.0000
  C   C1        1.0  0.87850  0.21120  0.11848  1.0000
  C   C2        1.0  0.78880  0.66730  0.11848  1.0000
  C   C3        1.0  0.33270  0.12150  0.11848  1.0000
  C   C4        1.0  0.78880  0.12150  0.38152  1.0000
  C   C5        1.0  0.33270  0.21120  0.38152  1.0000
  C   C6        1.0  0.87850  0.66730  0.38152  1.0000
  C   C7        1.0  0.12150  0.78880  0.88152  1.0000
  C   C8        1.0  0.21120  0.33270  0.88152  1.0000
  C   C9        1.0  0.66730  0.87850  0.88152  1.0000
  C   C10       1.0  0.21120  0.87850  0.61848  1.0000
  C   C11       1.0  0.66730  0.78880  0.61848  1.0000
  C   C12       1.0  0.12150  0.33270  0.61848  1.0000
  H   H1        1.0  0.76080  0.10760  0.10910  1.0000
  H   H2        1.0  0.89240  0.65320  0.10910  1.0000
  H   H3        1.0  0.34680  0.23920  0.10910  1.0000
  H   H4        1.0  0.89240  0.23920  0.39090  1.0000
  H   H5        1.0  0.34680  0.10760  0.39090  1.0000
  H   H6        1.0  0.76080  0.65320  0.39090  1.0000
  H   H7        1.0  0.23920  0.89240  0.89090  1.0000
  H   H8        1.0  0.10760  0.34680  0.89090  1.0000
  H   H9        1.0  0.65320  0.76080  0.89090  1.0000
  H   H10       1.0  0.10760  0.76080  0.60910  1.0000
  H   H11       1.0  0.65320  0.89240  0.60910  1.0000
  H   H12       1.0  0.23920  0.34680  0.60910  1.0000
