data_image0
_chemical_formula_structural       Mn2Fe2O24C12H12
_chemical_formula_sum              "Mn2 Fe2 O24 C12 H12"
_cell_length_a       8.2755
_cell_length_b       8.2755
_cell_length_c       13.8942
_cell_angle_alpha    90
_cell_angle_beta     90
_cell_angle_gamma    120

_space_group_name_H-M_alt    "P 1"
_space_group_IT_number       1

loop_
  _space_group_symop_operation_xyz
  'x, y, z'

loop_
  _atom_site_type_symbol
  _atom_site_label
  _atom_site_symmetry_multiplicity
  _atom_site_fract_x
  _atom_site_fract_y
  _atom_site_fract_z
  _atom_site_occupancy
  Mn  Mn1       1.0  0.66670  0.33330  0.25000  1.0000
  Mn  Mn2       1.0  0.33330  0.66670  0.75000  1.0000
  Fe  Fe1       1.0  0.00000  0.00000  0.00000  1.0000
  Fe  Fe2       1.0  0.00000  0.00000  0.50000  1.0000
  O   O1        1.0  0.88926  0.34252  0.16593  1.0000
  O   O2        1.0  0.65748  0.54674  0.16593  1.0000
  O   O3        1.0  0.45326  0.11074  0.16593  1.0000
  O   O4        1.0  0.65748  0.11074  0.33407  1.0000
  O   O5        1.0  0.45326  0.34252  0.33407  1.0000
  O   O6        1.0  0.88926  0.54674  0.33407  1.0000
  O   O7        1.0  0.11074  0.65748  0.83407  1.0000
  O   O8        1.0  0.34252  0.45326  0.83407  1.0000
  O   O9        1.0  0.54674  0.88926  0.83407  1.0000
  O   O10       1.0  0.34252  0.88926  0.66593  1.0000
  O   O11       1.0  0.54674  0.65748  0.66593  1.0000
  O   O12       1.0  0.11074  0.45326  0.66593  1.0000
  O   O13       1.0  0.01604  0.20795  0.08174  1.0000
  O   O14       1.0  0.79205  0.80809  0.08174  1.0000
  O   O15       1.0  0.19191  0.98396  0.08174  1.0000
  O   O16       1.0  0.79205  0.98396  0.41826  1.0000
  O   O17       1.0  0.19191  0.20795  0.41826  1.0000
  O   O18       1.0  0.01604  0.80809  0.41826  1.0000
  O   O19       1.0  0.98396  0.79205  0.91826  1.0000
  O   O20       1.0  0.20795  0.19191  0.91826  1.0000
  O   O21       1.0  0.80809  0.01604  0.91826  1.0000
  O   O22       1.0  0.20795  0.01604  0.58174  1.0000
  O   O23       1.0  0.80809  0.79205  0.58174  1.0000
  O   O24       1.0  0.98396  0.19191  0.58174  1.0000
  C   C1        1.0  0.87844  0.21152  0.11806  1.0000
  C   C2        1.0  0.78848  0.66692  0.11806  1.0000
  C   C3        1.0  0.33308  0.12156  0.11806  1.0000
  C   C4        1.0  0.78848  0.12156  0.38194  1.0000
  C   C5        1.0  0.33308  0.21152  0.38194  1.0000
  C   C6        1.0  0.87844  0.66692  0.38194  1.0000
  C   C7        1.0  0.12156  0.78848  0.88194  1.0000
  C   C8        1.0  0.21152  0.33308  0.88194  1.0000
  C   C9        1.0  0.66692  0.87844  0.88194  1.0000
  C   C10       1.0  0.21152  0.87844  0.61806  1.0000
  C   C11       1.0  0.66692  0.78848  0.61806  1.0000
  C   C12       1.0  0.12156  0.33308  0.61806  1.0000
  H   H1        1.0  0.76060  0.10850  0.10820  1.0000
  H   H2        1.0  0.89150  0.65210  0.10820  1.0000
  H   H3        1.0  0.34790  0.23940  0.10820  1.0000
  H   H4        1.0  0.89150  0.23940  0.39180  1.0000
  H   H5        1.0  0.34790  0.10850  0.39180  1.0000
  H   H6        1.0  0.76060  0.65210  0.39180  1.0000
  H   H7        1.0  0.23940  0.89150  0.89180  1.0000
  H   H8        1.0  0.10850  0.34790  0.89180  1.0000
  H   H9        1.0  0.65210  0.76060  0.89180  1.0000
  H   H10       1.0  0.10850  0.76060  0.60820  1.0000
  H   H11       1.0  0.65210  0.89150  0.60820  1.0000
  H   H12       1.0  0.23940  0.34790  0.60820  1.0000
