data_image0
_chemical_formula_structural       Zn12O80C24H8C8H8C16H8C8H8C16H8C8H8C16H8C8H8C32H8C8H8C16H8C8H8C16H8C8H8C16H8C8H8C8
_chemical_formula_sum              "Zn12 O80 C224 H128"
_cell_length_a       26.239
_cell_length_b       14.067
_cell_length_c       26.5
_cell_angle_alpha    90
_cell_angle_beta     115.307
_cell_angle_gamma    90

_space_group_name_H-M_alt    "P 1"
_space_group_IT_number       1

loop_
  _space_group_symop_operation_xyz
  'x, y, z'

loop_
  _atom_site_type_symbol
  _atom_site_label
  _atom_site_symmetry_multiplicity
  _atom_site_fract_x
  _atom_site_fract_y
  _atom_site_fract_z
  _atom_site_occupancy
  Zn  Zn1       1.0  0.32398  0.45052  0.00263  1.0000
  Zn  Zn2       1.0  0.67602  0.45052  0.49737  1.0000
  Zn  Zn3       1.0  0.82398  0.95052  0.00263  1.0000
  Zn  Zn4       1.0  0.17602  0.95052  0.49737  1.0000
  Zn  Zn5       1.0  0.67602  0.54948  0.99737  1.0000
  Zn  Zn6       1.0  0.32398  0.54948  0.50263  1.0000
  Zn  Zn7       1.0  0.17602  0.04948  0.99737  1.0000
  Zn  Zn8       1.0  0.82398  0.04948  0.50263  1.0000
  Zn  Zn9       1.0  0.25000  0.25000  0.00000  1.0000
  Zn  Zn10      1.0  0.75000  0.25000  0.50000  1.0000
  Zn  Zn11      1.0  0.75000  0.75000  0.00000  1.0000
  Zn  Zn12      1.0  0.25000  0.75000  0.50000  1.0000
  O   O1        1.0  0.39727  0.35990  0.00321  1.0000
  O   O2        1.0  0.60273  0.35990  0.49679  1.0000
  O   O3        1.0  0.89727  0.85990  0.00321  1.0000
  O   O4        1.0  0.10273  0.85990  0.49679  1.0000
  O   O5        1.0  0.60273  0.64010  0.99679  1.0000
  O   O6        1.0  0.39727  0.64010  0.50321  1.0000
  O   O7        1.0  0.10273  0.14010  0.99679  1.0000
  O   O8        1.0  0.89727  0.14010  0.50321  1.0000
  O   O9        1.0  0.33630  0.31190  0.03369  1.0000
  O   O10       1.0  0.66370  0.31190  0.46631  1.0000
  O   O11       1.0  0.83630  0.81190  0.03369  1.0000
  O   O12       1.0  0.16370  0.81190  0.46631  1.0000
  O   O13       1.0  0.66370  0.68810  0.96631  1.0000
  O   O14       1.0  0.33630  0.68810  0.53369  1.0000
  O   O15       1.0  0.16370  0.18810  0.96631  1.0000
  O   O16       1.0  0.83630  0.18810  0.53369  1.0000
  O   O17       1.0  0.49844  0.95270  0.08650  1.0000
  O   O18       1.0  0.50156  0.95270  0.41350  1.0000
  O   O19       1.0  0.99844  0.45270  0.08650  1.0000
  O   O20       1.0  0.00156  0.45270  0.41350  1.0000
  O   O21       1.0  0.50156  0.04730  0.91350  1.0000
  O   O22       1.0  0.49844  0.04730  0.58650  1.0000
  O   O23       1.0  0.00156  0.54730  0.91350  1.0000
  O   O24       1.0  0.99844  0.54730  0.58650  1.0000
  O   O25       1.0  0.41210  0.53480  0.08920  1.0000
  O   O26       1.0  0.58790  0.53480  0.41080  1.0000
  O   O27       1.0  0.91210  0.03480  0.08920  1.0000
  O   O28       1.0  0.08790  0.03480  0.41080  1.0000
  O   O29       1.0  0.58790  0.46520  0.91080  1.0000
  O   O30       1.0  0.41210  0.46520  0.58920  1.0000
  O   O31       1.0  0.08790  0.96520  0.91080  1.0000
  O   O32       1.0  0.91210  0.96520  0.58920  1.0000
  O   O33       1.0  0.35660  0.57590  0.00170  1.0000
  O   O34       1.0  0.64340  0.57590  0.49830  1.0000
  O   O35       1.0  0.85660  0.07590  0.00170  1.0000
  O   O36       1.0  0.14340  0.07590  0.49830  1.0000
  O   O37       1.0  0.64340  0.42410  0.99830  1.0000
  O   O38       1.0  0.35660  0.42410  0.50170  1.0000
  O   O39       1.0  0.14340  0.92410  0.99830  1.0000
  O   O40       1.0  0.85660  0.92410  0.50170  1.0000
  O   O41       1.0  0.27630  0.44090  0.92335  1.0000
  O   O42       1.0  0.72370  0.44090  0.57665  1.0000
  O   O43       1.0  0.77630  0.94090  0.92335  1.0000
  O   O44       1.0  0.22370  0.94090  0.57665  1.0000
  O   O45       1.0  0.72370  0.55910  0.07665  1.0000
  O   O46       1.0  0.27630  0.55910  0.42335  1.0000
  O   O47       1.0  0.22370  0.05910  0.07665  1.0000
  O   O48       1.0  0.77630  0.05910  0.42335  1.0000
  O   O49       1.0  0.22713  0.31230  0.92249  1.0000
  O   O50       1.0  0.77287  0.31230  0.57751  1.0000
  O   O51       1.0  0.72713  0.81230  0.92249  1.0000
  O   O52       1.0  0.27287  0.81230  0.57751  1.0000
  O   O53       1.0  0.77287  0.68770  0.07751  1.0000
  O   O54       1.0  0.22713  0.68770  0.42249  1.0000
  O   O55       1.0  0.27287  0.18770  0.07751  1.0000
  O   O56       1.0  0.72713  0.18770  0.42249  1.0000
  O   O57       1.0  0.12824  0.38370  0.66369  1.0000
  O   O58       1.0  0.87176  0.38370  0.83631  1.0000
  O   O59       1.0  0.62824  0.88370  0.66369  1.0000
  O   O60       1.0  0.37176  0.88370  0.83631  1.0000
  O   O61       1.0  0.87176  0.61630  0.33631  1.0000
  O   O62       1.0  0.12824  0.61630  0.16369  1.0000
  O   O63       1.0  0.37176  0.11630  0.33631  1.0000
  O   O64       1.0  0.62824  0.11630  0.16369  1.0000
  O   O65       1.0  0.27342  0.50990  0.53807  1.0000
  O   O66       1.0  0.72658  0.50990  0.96193  1.0000
  O   O67       1.0  0.77342  0.00990  0.53807  1.0000
  O   O68       1.0  0.22658  0.00990  0.96193  1.0000
  O   O69       1.0  0.72658  0.49010  0.46193  1.0000
  O   O70       1.0  0.27342  0.49010  0.03807  1.0000
  O   O71       1.0  0.22658  0.99010  0.46193  1.0000
  O   O72       1.0  0.77342  0.99010  0.03807  1.0000
  O   O73       1.0  0.22324  0.63850  0.52960  1.0000
  O   O74       1.0  0.77676  0.63850  0.97040  1.0000
  O   O75       1.0  0.72324  0.13850  0.52960  1.0000
  O   O76       1.0  0.27676  0.13850  0.97040  1.0000
  O   O77       1.0  0.77676  0.36150  0.47040  1.0000
  O   O78       1.0  0.22324  0.36150  0.02960  1.0000
  O   O79       1.0  0.27676  0.86150  0.47040  1.0000
  O   O80       1.0  0.72324  0.86150  0.02960  1.0000
  C   C1        1.0  0.38110  0.29880  0.02480  1.0000
  C   C2        1.0  0.61890  0.29880  0.47520  1.0000
  C   C3        1.0  0.88110  0.79880  0.02480  1.0000
  C   C4        1.0  0.11890  0.79880  0.47520  1.0000
  C   C5        1.0  0.61890  0.70120  0.97520  1.0000
  C   C6        1.0  0.38110  0.70120  0.52480  1.0000
  C   C7        1.0  0.11890  0.20120  0.97520  1.0000
  C   C8        1.0  0.88110  0.20120  0.52480  1.0000
  C   C9        1.0  0.41110  0.20760  0.04300  1.0000
  C   C10       1.0  0.58890  0.20760  0.45700  1.0000
  C   C11       1.0  0.91110  0.70760  0.04300  1.0000
  C   C12       1.0  0.08890  0.70760  0.45700  1.0000
  C   C13       1.0  0.58890  0.79240  0.95700  1.0000
  C   C14       1.0  0.41110  0.79240  0.54300  1.0000
  C   C15       1.0  0.08890  0.29240  0.95700  1.0000
  C   C16       1.0  0.91110  0.29240  0.54300  1.0000
  C   C17       1.0  0.45650  0.18670  0.03070  1.0000
  C   C18       1.0  0.54350  0.18670  0.46930  1.0000
  C   C19       1.0  0.95650  0.68670  0.03070  1.0000
  C   C20       1.0  0.04350  0.68670  0.46930  1.0000
  C   C21       1.0  0.54350  0.81330  0.96930  1.0000
  C   C22       1.0  0.45650  0.81330  0.53070  1.0000
  C   C23       1.0  0.04350  0.31330  0.96930  1.0000
  C   C24       1.0  0.95650  0.31330  0.53070  1.0000
  H   H1        1.0  0.46830  0.23200  0.01240  1.0000
  H   H2        1.0  0.53170  0.23200  0.48760  1.0000
  H   H3        1.0  0.96830  0.73200  0.01240  1.0000
  H   H4        1.0  0.03170  0.73200  0.48760  1.0000
  H   H5        1.0  0.53170  0.76800  0.98760  1.0000
  H   H6        1.0  0.46830  0.76800  0.51240  1.0000
  H   H7        1.0  0.03170  0.26800  0.98760  1.0000
  H   H8        1.0  0.96830  0.26800  0.51240  1.0000
  C   C25       1.0  0.48400  0.10260  0.04470  1.0000
  C   C26       1.0  0.51600  0.10260  0.45530  1.0000
  C   C27       1.0  0.98400  0.60260  0.04470  1.0000
  C   C28       1.0  0.01600  0.60260  0.45530  1.0000
  C   C29       1.0  0.51600  0.89740  0.95530  1.0000
  C   C30       1.0  0.48400  0.89740  0.54470  1.0000
  C   C31       1.0  0.01600  0.39740  0.95530  1.0000
  C   C32       1.0  0.98400  0.39740  0.54470  1.0000
  H   H9        1.0  0.51440  0.09090  0.03630  1.0000
  H   H10       1.0  0.48560  0.09090  0.46370  1.0000
  H   H11       1.0  0.01440  0.59090  0.03630  1.0000
  H   H12       1.0  0.98560  0.59090  0.46370  1.0000
  H   H13       1.0  0.48560  0.90910  0.96370  1.0000
  H   H14       1.0  0.51440  0.90910  0.53630  1.0000
  H   H15       1.0  0.98560  0.40910  0.96370  1.0000
  H   H16       1.0  0.01440  0.40910  0.53630  1.0000
  C   C33       1.0  0.46710  0.03590  0.07080  1.0000
  C   C34       1.0  0.53290  0.03590  0.42920  1.0000
  C   C35       1.0  0.96710  0.53590  0.07080  1.0000
  C   C36       1.0  0.03290  0.53590  0.42920  1.0000
  C   C37       1.0  0.53290  0.96410  0.92920  1.0000
  C   C38       1.0  0.46710  0.96410  0.57080  1.0000
  C   C39       1.0  0.03290  0.46410  0.92920  1.0000
  C   C40       1.0  0.96710  0.46410  0.57080  1.0000
  C   C41       1.0  0.42320  0.05370  0.08470  1.0000
  C   C42       1.0  0.57680  0.05370  0.41530  1.0000
  C   C43       1.0  0.92320  0.55370  0.08470  1.0000
  C   C44       1.0  0.07680  0.55370  0.41530  1.0000
  C   C45       1.0  0.57680  0.94630  0.91530  1.0000
  C   C46       1.0  0.42320  0.94630  0.58470  1.0000
  C   C47       1.0  0.07680  0.44630  0.91530  1.0000
  C   C48       1.0  0.92320  0.44630  0.58470  1.0000
  H   H17       1.0  0.41250  0.00830  0.10370  1.0000
  H   H18       1.0  0.58750  0.00830  0.39630  1.0000
  H   H19       1.0  0.91250  0.50830  0.10370  1.0000
  H   H20       1.0  0.08750  0.50830  0.39630  1.0000
  H   H21       1.0  0.58750  0.99170  0.89630  1.0000
  H   H22       1.0  0.41250  0.99170  0.60370  1.0000
  H   H23       1.0  0.08750  0.49170  0.89630  1.0000
  H   H24       1.0  0.91250  0.49170  0.60370  1.0000
  C   C49       1.0  0.39580  0.13820  0.07050  1.0000
  C   C50       1.0  0.60420  0.13820  0.42950  1.0000
  C   C51       1.0  0.89580  0.63820  0.07050  1.0000
  C   C52       1.0  0.10420  0.63820  0.42950  1.0000
  C   C53       1.0  0.60420  0.86180  0.92950  1.0000
  C   C54       1.0  0.39580  0.86180  0.57050  1.0000
  C   C55       1.0  0.10420  0.36180  0.92950  1.0000
  C   C56       1.0  0.89580  0.36180  0.57050  1.0000
  H   H25       1.0  0.36580  0.14960  0.07960  1.0000
  H   H26       1.0  0.63420  0.14960  0.42040  1.0000
  H   H27       1.0  0.86580  0.64960  0.07960  1.0000
  H   H28       1.0  0.13420  0.64960  0.42040  1.0000
  H   H29       1.0  0.63420  0.85040  0.92040  1.0000
  H   H30       1.0  0.36580  0.85040  0.57960  1.0000
  H   H31       1.0  0.13420  0.35040  0.92040  1.0000
  H   H32       1.0  0.86580  0.35040  0.57960  1.0000
  C   C57       1.0  0.47090  0.86580  0.07650  1.0000
  C   C58       1.0  0.52910  0.86580  0.42350  1.0000
  C   C59       1.0  0.97090  0.36580  0.07650  1.0000
  C   C60       1.0  0.02910  0.36580  0.42350  1.0000
  C   C61       1.0  0.52910  0.13420  0.92350  1.0000
  C   C62       1.0  0.47090  0.13420  0.57650  1.0000
  C   C63       1.0  0.02910  0.63420  0.92350  1.0000
  C   C64       1.0  0.97090  0.63420  0.57650  1.0000
  C   C65       1.0  0.49520  0.79540  0.11450  1.0000
  C   C66       1.0  0.50480  0.79540  0.38550  1.0000
  C   C67       1.0  0.99520  0.29540  0.11450  1.0000
  C   C68       1.0  0.00480  0.29540  0.38550  1.0000
  C   C69       1.0  0.50480  0.20460  0.88550  1.0000
  C   C70       1.0  0.49520  0.20460  0.61450  1.0000
  C   C71       1.0  0.00480  0.70460  0.88550  1.0000
  C   C72       1.0  0.99520  0.70460  0.61450  1.0000
  H   H33       1.0  0.52820  0.80680  0.14650  1.0000
  H   H34       1.0  0.47180  0.80680  0.35350  1.0000
  H   H35       1.0  0.02820  0.30680  0.14650  1.0000
  H   H36       1.0  0.97180  0.30680  0.35350  1.0000
  H   H37       1.0  0.47180  0.19320  0.85350  1.0000
  H   H38       1.0  0.52820  0.19320  0.64650  1.0000
  H   H39       1.0  0.97180  0.69320  0.85350  1.0000
  H   H40       1.0  0.02820  0.69320  0.64650  1.0000
  C   C73       1.0  0.47040  0.70750  0.10500  1.0000
  C   C74       1.0  0.52960  0.70750  0.39500  1.0000
  C   C75       1.0  0.97040  0.20750  0.10500  1.0000
  C   C76       1.0  0.02960  0.20750  0.39500  1.0000
  C   C77       1.0  0.52960  0.29250  0.89500  1.0000
  C   C78       1.0  0.47040  0.29250  0.60500  1.0000
  C   C79       1.0  0.02960  0.79250  0.89500  1.0000
  C   C80       1.0  0.97040  0.79250  0.60500  1.0000
  H   H41       1.0  0.48670  0.65930  0.13100  1.0000
  H   H42       1.0  0.51330  0.65930  0.36900  1.0000
  H   H43       1.0  0.98670  0.15930  0.13100  1.0000
  H   H44       1.0  0.01330  0.15930  0.36900  1.0000
  H   H45       1.0  0.51330  0.34070  0.86900  1.0000
  H   H46       1.0  0.48670  0.34070  0.63100  1.0000
  H   H47       1.0  0.01330  0.84070  0.86900  1.0000
  H   H48       1.0  0.98670  0.84070  0.63100  1.0000
  C   C81       1.0  0.42320  0.68920  0.05900  1.0000
  C   C82       1.0  0.57680  0.68920  0.44100  1.0000
  C   C83       1.0  0.92320  0.18920  0.05900  1.0000
  C   C84       1.0  0.07680  0.18920  0.44100  1.0000
  C   C85       1.0  0.57680  0.31080  0.94100  1.0000
  C   C86       1.0  0.42320  0.31080  0.55900  1.0000
  C   C87       1.0  0.07680  0.81080  0.94100  1.0000
  C   C88       1.0  0.92320  0.81080  0.55900  1.0000
  C   C89       1.0  0.40010  0.75890  0.01930  1.0000
  C   C90       1.0  0.59990  0.75890  0.48070  1.0000
  C   C91       1.0  0.90010  0.25890  0.01930  1.0000
  C   C92       1.0  0.09990  0.25890  0.48070  1.0000
  C   C93       1.0  0.59990  0.24110  0.98070  1.0000
  C   C94       1.0  0.40010  0.24110  0.51930  1.0000
  C   C95       1.0  0.09990  0.74110  0.98070  1.0000
  C   C96       1.0  0.90010  0.74110  0.51930  1.0000
  H   H49       1.0  0.36860  0.74570  0.98620  1.0000
  H   H50       1.0  0.63140  0.74570  0.51380  1.0000
  H   H51       1.0  0.86860  0.24570  0.98620  1.0000
  H   H52       1.0  0.13140  0.24570  0.51380  1.0000
  H   H53       1.0  0.63140  0.25430  0.01380  1.0000
  H   H54       1.0  0.36860  0.25430  0.48620  1.0000
  H   H55       1.0  0.13140  0.75430  0.01380  1.0000
  H   H56       1.0  0.86860  0.75430  0.48620  1.0000
  C   C97       1.0  0.42400  0.84930  0.02890  1.0000
  C   C98       1.0  0.57600  0.84930  0.47110  1.0000
  C   C99       1.0  0.92400  0.34930  0.02890  1.0000
  C   C100      1.0  0.07600  0.34930  0.47110  1.0000
  C   C101      1.0  0.57600  0.15070  0.97110  1.0000
  C   C102      1.0  0.42400  0.15070  0.52890  1.0000
  C   C103      1.0  0.07600  0.65070  0.97110  1.0000
  C   C104      1.0  0.92400  0.65070  0.52890  1.0000
  H   H57       1.0  0.40800  0.89760  0.00290  1.0000
  H   H58       1.0  0.59200  0.89760  0.49710  1.0000
  H   H59       1.0  0.90800  0.39760  0.00290  1.0000
  H   H60       1.0  0.09200  0.39760  0.49710  1.0000
  H   H61       1.0  0.59200  0.10240  0.99710  1.0000
  H   H62       1.0  0.40800  0.10240  0.50290  1.0000
  H   H63       1.0  0.09200  0.60240  0.99710  1.0000
  H   H64       1.0  0.90800  0.60240  0.50290  1.0000
  C   C105      1.0  0.39650  0.59180  0.05070  1.0000
  C   C106      1.0  0.60350  0.59180  0.44930  1.0000
  C   C107      1.0  0.89650  0.09180  0.05070  1.0000
  C   C108      1.0  0.10350  0.09180  0.44930  1.0000
  C   C109      1.0  0.60350  0.40820  0.94930  1.0000
  C   C110      1.0  0.39650  0.40820  0.55070  1.0000
  C   C111      1.0  0.10350  0.90820  0.94930  1.0000
  C   C112      1.0  0.89650  0.90820  0.55070  1.0000
  C   C113      1.0  0.23980  0.37790  0.89880  1.0000
  C   C114      1.0  0.76020  0.37790  0.60120  1.0000
  C   C115      1.0  0.73980  0.87790  0.89880  1.0000
  C   C116      1.0  0.26020  0.87790  0.60120  1.0000
  C   C117      1.0  0.76020  0.62210  0.10120  1.0000
  C   C118      1.0  0.23980  0.62210  0.39880  1.0000
  C   C119      1.0  0.26020  0.12210  0.10120  1.0000
  C   C120      1.0  0.73980  0.12210  0.39880  1.0000
  C   C121      1.0  0.21070  0.38250  0.83720  1.0000
  C   C122      1.0  0.78930  0.38250  0.66280  1.0000
  C   C123      1.0  0.71070  0.88250  0.83720  1.0000
  C   C124      1.0  0.28930  0.88250  0.66280  1.0000
  C   C125      1.0  0.78930  0.61750  0.16280  1.0000
  C   C126      1.0  0.21070  0.61750  0.33720  1.0000
  C   C127      1.0  0.28930  0.11750  0.16280  1.0000
  C   C128      1.0  0.71070  0.11750  0.33720  1.0000
  C   C129      1.0  0.16600  0.32450  0.80740  1.0000
  C   C130      1.0  0.83400  0.32450  0.69260  1.0000
  C   C131      1.0  0.66600  0.82450  0.80740  1.0000
  C   C132      1.0  0.33400  0.82450  0.69260  1.0000
  C   C133      1.0  0.83400  0.67550  0.19260  1.0000
  C   C134      1.0  0.16600  0.67550  0.30740  1.0000
  C   C135      1.0  0.33400  0.17550  0.19260  1.0000
  C   C136      1.0  0.66600  0.17550  0.30740  1.0000
  H   H65       1.0  0.15300  0.28330  0.82680  1.0000
  H   H66       1.0  0.84700  0.28330  0.67320  1.0000
  H   H67       1.0  0.65300  0.78330  0.82680  1.0000
  H   H68       1.0  0.34700  0.78330  0.67320  1.0000
  H   H69       1.0  0.84700  0.71670  0.17320  1.0000
  H   H70       1.0  0.15300  0.71670  0.32680  1.0000
  H   H71       1.0  0.34700  0.21670  0.17320  1.0000
  H   H72       1.0  0.65300  0.21670  0.32680  1.0000
  C   C137      1.0  0.13980  0.32490  0.75060  1.0000
  C   C138      1.0  0.86020  0.32490  0.74940  1.0000
  C   C139      1.0  0.63980  0.82490  0.75060  1.0000
  C   C140      1.0  0.36020  0.82490  0.74940  1.0000
  C   C141      1.0  0.86020  0.67510  0.24940  1.0000
  C   C142      1.0  0.13980  0.67510  0.25060  1.0000
  C   C143      1.0  0.36020  0.17510  0.24940  1.0000
  C   C144      1.0  0.63980  0.17510  0.25060  1.0000
  H   H73       1.0  0.10980  0.28380  0.73190  1.0000
  H   H74       1.0  0.89020  0.28380  0.76810  1.0000
  H   H75       1.0  0.60980  0.78380  0.73190  1.0000
  H   H76       1.0  0.39020  0.78380  0.76810  1.0000
  H   H77       1.0  0.89020  0.71620  0.26810  1.0000
  H   H78       1.0  0.10980  0.71620  0.23190  1.0000
  H   H79       1.0  0.39020  0.21620  0.26810  1.0000
  H   H80       1.0  0.60980  0.21620  0.23190  1.0000
  C   C145      1.0  0.15740  0.38560  0.72120  1.0000
  C   C146      1.0  0.84260  0.38560  0.77880  1.0000
  C   C147      1.0  0.65740  0.88560  0.72120  1.0000
  C   C148      1.0  0.34260  0.88560  0.77880  1.0000
  C   C149      1.0  0.84260  0.61440  0.27880  1.0000
  C   C150      1.0  0.15740  0.61440  0.22120  1.0000
  C   C151      1.0  0.34260  0.11440  0.27880  1.0000
  C   C152      1.0  0.65740  0.11440  0.22120  1.0000
  C   C153      1.0  0.20200  0.44480  0.74970  1.0000
  C   C154      1.0  0.79800  0.44480  0.75030  1.0000
  C   C155      1.0  0.70200  0.94480  0.74970  1.0000
  C   C156      1.0  0.29800  0.94480  0.75030  1.0000
  C   C157      1.0  0.79800  0.55520  0.25030  1.0000
  C   C158      1.0  0.20200  0.55520  0.24970  1.0000
  C   C159      1.0  0.29800  0.05520  0.25030  1.0000
  C   C160      1.0  0.70200  0.05520  0.24970  1.0000
  H   H81       1.0  0.21500  0.48560  0.73020  1.0000
  H   H82       1.0  0.78500  0.48560  0.76980  1.0000
  H   H83       1.0  0.71500  0.98560  0.73020  1.0000
  H   H84       1.0  0.28500  0.98560  0.76980  1.0000
  H   H85       1.0  0.78500  0.51440  0.26980  1.0000
  H   H86       1.0  0.21500  0.51440  0.23020  1.0000
  H   H87       1.0  0.28500  0.01440  0.26980  1.0000
  H   H88       1.0  0.71500  0.01440  0.23020  1.0000
  C   C161      1.0  0.22750  0.44390  0.80720  1.0000
  C   C162      1.0  0.77250  0.44390  0.69280  1.0000
  C   C163      1.0  0.72750  0.94390  0.80720  1.0000
  C   C164      1.0  0.27250  0.94390  0.69280  1.0000
  C   C165      1.0  0.77250  0.55610  0.19280  1.0000
  C   C166      1.0  0.22750  0.55610  0.30720  1.0000
  C   C167      1.0  0.27250  0.05610  0.19280  1.0000
  C   C168      1.0  0.72750  0.05610  0.30720  1.0000
  H   H89       1.0  0.25690  0.48590  0.82610  1.0000
  H   H90       1.0  0.74310  0.48590  0.67390  1.0000
  H   H91       1.0  0.75690  0.98590  0.82610  1.0000
  H   H92       1.0  0.24310  0.98590  0.67390  1.0000
  H   H93       1.0  0.74310  0.51410  0.17390  1.0000
  H   H94       1.0  0.25690  0.51410  0.32610  1.0000
  H   H95       1.0  0.24310  0.01410  0.17390  1.0000
  H   H96       1.0  0.75690  0.01410  0.32610  1.0000
  C   C169      1.0  0.15430  0.42540  0.63360  1.0000
  C   C170      1.0  0.84570  0.42540  0.86640  1.0000
  C   C171      1.0  0.65430  0.92540  0.63360  1.0000
  C   C172      1.0  0.34570  0.92540  0.86640  1.0000
  C   C173      1.0  0.84570  0.57460  0.36640  1.0000
  C   C174      1.0  0.15430  0.57460  0.13360  1.0000
  C   C175      1.0  0.34570  0.07460  0.36640  1.0000
  C   C176      1.0  0.65430  0.07460  0.13360  1.0000
  C   C177      1.0  0.19890  0.37890  0.62940  1.0000
  C   C178      1.0  0.80110  0.37890  0.87060  1.0000
  C   C179      1.0  0.69890  0.87890  0.62940  1.0000
  C   C180      1.0  0.30110  0.87890  0.87060  1.0000
  C   C181      1.0  0.80110  0.62110  0.37060  1.0000
  C   C182      1.0  0.19890  0.62110  0.12940  1.0000
  C   C183      1.0  0.30110  0.12110  0.37060  1.0000
  C   C184      1.0  0.69890  0.12110  0.12940  1.0000
  H   H97       1.0  0.21140  0.32020  0.64650  1.0000
  H   H98       1.0  0.78860  0.32020  0.85350  1.0000
  H   H99       1.0  0.71140  0.82020  0.64650  1.0000
  H   H100      1.0  0.28860  0.82020  0.85350  1.0000
  H   H101      1.0  0.78860  0.67980  0.35350  1.0000
  H   H102      1.0  0.21140  0.67980  0.14650  1.0000
  H   H103      1.0  0.28860  0.17980  0.35350  1.0000
  H   H104      1.0  0.71140  0.17980  0.14650  1.0000
  C   C185      1.0  0.22350  0.42090  0.60000  1.0000
  C   C186      1.0  0.77650  0.42090  0.90000  1.0000
  C   C187      1.0  0.72350  0.92090  0.60000  1.0000
  C   C188      1.0  0.27650  0.92090  0.90000  1.0000
  C   C189      1.0  0.77650  0.57910  0.40000  1.0000
  C   C190      1.0  0.22350  0.57910  0.10000  1.0000
  C   C191      1.0  0.27650  0.07910  0.40000  1.0000
  C   C192      1.0  0.72350  0.07910  0.10000  1.0000
  H   H105      1.0  0.25370  0.39050  0.59740  1.0000
  H   H106      1.0  0.74630  0.39050  0.90260  1.0000
  H   H107      1.0  0.75370  0.89050  0.59740  1.0000
  H   H108      1.0  0.24630  0.89050  0.90260  1.0000
  H   H109      1.0  0.74630  0.60950  0.40260  1.0000
  H   H110      1.0  0.25370  0.60950  0.09740  1.0000
  H   H111      1.0  0.24630  0.10950  0.40260  1.0000
  H   H112      1.0  0.75370  0.10950  0.09740  1.0000
  C   C193      1.0  0.20570  0.50760  0.57337  1.0000
  C   C194      1.0  0.79430  0.50760  0.92663  1.0000
  C   C195      1.0  0.70570  0.00760  0.57337  1.0000
  C   C196      1.0  0.29430  0.00760  0.92663  1.0000
  C   C197      1.0  0.79430  0.49240  0.42663  1.0000
  C   C198      1.0  0.20570  0.49240  0.07337  1.0000
  C   C199      1.0  0.29430  0.99240  0.42663  1.0000
  C   C200      1.0  0.70570  0.99240  0.07337  1.0000
  C   C201      1.0  0.16080  0.54890  0.57700  1.0000
  C   C202      1.0  0.83920  0.54890  0.92300  1.0000
  C   C203      1.0  0.66080  0.04890  0.57700  1.0000
  C   C204      1.0  0.33920  0.04890  0.92300  1.0000
  C   C205      1.0  0.83920  0.45110  0.42300  1.0000
  C   C206      1.0  0.16080  0.45110  0.07700  1.0000
  C   C207      1.0  0.33920  0.95110  0.42300  1.0000
  C   C208      1.0  0.66080  0.95110  0.07700  1.0000
  H   H113      1.0  0.14690  0.60630  0.55890  1.0000
  H   H114      1.0  0.85310  0.60630  0.94110  1.0000
  H   H115      1.0  0.64690  0.10630  0.55890  1.0000
  H   H116      1.0  0.35310  0.10630  0.94110  1.0000
  H   H117      1.0  0.85310  0.39370  0.44110  1.0000
  H   H118      1.0  0.14690  0.39370  0.05890  1.0000
  H   H119      1.0  0.35310  0.89370  0.44110  1.0000
  H   H120      1.0  0.64690  0.89370  0.05890  1.0000
  C   C209      1.0  0.13540  0.50600  0.60780  1.0000
  C   C210      1.0  0.86460  0.50600  0.89220  1.0000
  C   C211      1.0  0.63540  0.00600  0.60780  1.0000
  C   C212      1.0  0.36460  0.00600  0.89220  1.0000
  C   C213      1.0  0.86460  0.49400  0.39220  1.0000
  C   C214      1.0  0.13540  0.49400  0.10780  1.0000
  C   C215      1.0  0.36460  0.99400  0.39220  1.0000
  C   C216      1.0  0.63540  0.99400  0.10780  1.0000
  H   H121      1.0  0.10450  0.53490  0.61000  1.0000
  H   H122      1.0  0.89550  0.53490  0.89000  1.0000
  H   H123      1.0  0.60450  0.03490  0.61000  1.0000
  H   H124      1.0  0.39550  0.03490  0.89000  1.0000
  H   H125      1.0  0.89550  0.46510  0.39000  1.0000
  H   H126      1.0  0.10450  0.46510  0.11000  1.0000
  H   H127      1.0  0.39550  0.96510  0.39000  1.0000
  H   H128      1.0  0.60450  0.96510  0.11000  1.0000
  C   C217      1.0  0.23630  0.55580  0.54450  1.0000
  C   C218      1.0  0.76370  0.55580  0.95550  1.0000
  C   C219      1.0  0.73630  0.05580  0.54450  1.0000
  C   C220      1.0  0.26370  0.05580  0.95550  1.0000
  C   C221      1.0  0.76370  0.44420  0.45550  1.0000
  C   C222      1.0  0.23630  0.44420  0.04450  1.0000
  C   C223      1.0  0.26370  0.94420  0.45550  1.0000
  C   C224      1.0  0.73630  0.94420  0.04450  1.0000
