data_image0
_chemical_formula_structural       Cu8O40C8H12C8H12C8H12C8H12C8H12
_chemical_formula_sum              "Cu8 O40 C40 H60"
_cell_length_a       12.282
_cell_length_b       11.7714
_cell_length_c       17.797
_cell_angle_alpha    90
_cell_angle_beta     101.01
_cell_angle_gamma    90

_space_group_name_H-M_alt    "P 1"
_space_group_IT_number       1

loop_
  _space_group_symop_operation_xyz
  'x, y, z'

loop_
  _atom_site_type_symbol
  _atom_site_label
  _atom_site_symmetry_multiplicity
  _atom_site_fract_x
  _atom_site_fract_y
  _atom_site_fract_z
  _atom_site_occupancy
  Cu  Cu1       1.0  0.47991  0.48712  0.06996  1.0000
  Cu  Cu2       1.0  0.02009  0.98712  0.43004  1.0000
  Cu  Cu3       1.0  0.52009  0.51288  0.93004  1.0000
  Cu  Cu4       1.0  0.97991  0.01288  0.56996  1.0000
  Cu  Cu5       1.0  0.48180  0.49118  0.42430  1.0000
  Cu  Cu6       1.0  0.01820  0.99118  0.07570  1.0000
  Cu  Cu7       1.0  0.51820  0.50882  0.57570  1.0000
  Cu  Cu8       1.0  0.98180  0.00882  0.92430  1.0000
  O   O1        1.0  0.63529  0.43600  0.09439  1.0000
  O   O2        1.0  0.86471  0.93600  0.40561  1.0000
  O   O3        1.0  0.36471  0.56400  0.90561  1.0000
  O   O4        1.0  0.13529  0.06400  0.59439  1.0000
  O   O5        1.0  0.66972  0.45686  0.97717  1.0000
  O   O6        1.0  0.83028  0.95686  0.52283  1.0000
  O   O7        1.0  0.33028  0.54314  0.02283  1.0000
  O   O8        1.0  0.16972  0.04314  0.47717  1.0000
  O   O9        1.0  0.53240  0.64551  0.08244  1.0000
  O   O10       1.0  0.96760  0.14551  0.41756  1.0000
  O   O11       1.0  0.46760  0.35449  0.91756  1.0000
  O   O12       1.0  0.03240  0.85449  0.58244  1.0000
  O   O13       1.0  0.56731  0.66641  0.96514  1.0000
  O   O14       1.0  0.93269  0.16641  0.53486  1.0000
  O   O15       1.0  0.43269  0.33359  0.03486  1.0000
  O   O16       1.0  0.06731  0.83359  0.46514  1.0000
  O   O17       1.0  0.43996  0.48192  0.18068  1.0000
  O   O18       1.0  0.06004  0.98192  0.31932  1.0000
  O   O19       1.0  0.56004  0.51808  0.81932  1.0000
  O   O20       1.0  0.93996  0.01808  0.68068  1.0000
  O   O21       1.0  0.43344  0.48836  0.30229  1.0000
  O   O22       1.0  0.06656  0.98836  0.19771  1.0000
  O   O23       1.0  0.56656  0.51164  0.69771  1.0000
  O   O24       1.0  0.93344  0.01164  0.80229  1.0000
  O   O25       1.0  0.45062  0.65907  0.55458  1.0000
  O   O26       1.0  0.04938  0.15907  0.94542  1.0000
  O   O27       1.0  0.54938  0.34093  0.44542  1.0000
  O   O28       1.0  0.95062  0.84093  0.05458  1.0000
  O   O29       1.0  0.42227  0.64637  0.42770  1.0000
  O   O30       1.0  0.07773  0.14637  0.07230  1.0000
  O   O31       1.0  0.57773  0.35363  0.57230  1.0000
  O   O32       1.0  0.92227  0.85363  0.92770  1.0000
  O   O33       1.0  0.63196  0.55508  0.43227  1.0000
  O   O34       1.0  0.86804  0.05508  0.06773  1.0000
  O   O35       1.0  0.36804  0.44492  0.56773  1.0000
  O   O36       1.0  0.13196  0.94492  0.93227  1.0000
  O   O37       1.0  0.66125  0.57123  0.55922  1.0000
  O   O38       1.0  0.83875  0.07123  0.94078  1.0000
  O   O39       1.0  0.33875  0.42877  0.44078  1.0000
  O   O40       1.0  0.16125  0.92877  0.05922  1.0000
  C   C1        1.0  0.69770  0.43190  0.04678  1.0000
  C   C2        1.0  0.80230  0.93190  0.45322  1.0000
  C   C3        1.0  0.30230  0.56810  0.95322  1.0000
  C   C4        1.0  0.19770  0.06810  0.54678  1.0000
  C   C5        1.0  0.81620  0.39610  0.07515  1.0000
  C   C6        1.0  0.68380  0.89610  0.42485  1.0000
  C   C7        1.0  0.18380  0.60390  0.92485  1.0000
  C   C8        1.0  0.31620  0.10390  0.57515  1.0000
  H   H1        1.0  0.86390  0.46110  0.07740  1.0000
  H   H2        1.0  0.63610  0.96110  0.42260  1.0000
  H   H3        1.0  0.13610  0.53890  0.92260  1.0000
  H   H4        1.0  0.36390  0.03890  0.57740  1.0000
  H   H5        1.0  0.83700  0.34080  0.04080  1.0000
  H   H6        1.0  0.66300  0.84080  0.45920  1.0000
  H   H7        1.0  0.16300  0.65920  0.95920  1.0000
  H   H8        1.0  0.33700  0.15920  0.54080  1.0000
  H   H9        1.0  0.82330  0.36350  0.12530  1.0000
  H   H10       1.0  0.67670  0.86350  0.37470  1.0000
  H   H11       1.0  0.17670  0.63650  0.87470  1.0000
  H   H12       1.0  0.32330  0.13650  0.62530  1.0000
  C   C9        1.0  0.56660  0.70060  0.03110  1.0000
  C   C10       1.0  0.93340  0.20060  0.46890  1.0000
  C   C11       1.0  0.43340  0.29940  0.96890  1.0000
  C   C12       1.0  0.06660  0.79940  0.53110  1.0000
  C   C13       1.0  0.61150  0.81840  0.05180  1.0000
  C   C14       1.0  0.88850  0.31840  0.44820  1.0000
  C   C15       1.0  0.38850  0.18160  0.94820  1.0000
  C   C16       1.0  0.11150  0.68160  0.55180  1.0000
  H   H13       1.0  0.59310  0.84100  0.09970  1.0000
  H   H14       1.0  0.90690  0.34100  0.40030  1.0000
  H   H15       1.0  0.40690  0.15900  0.90030  1.0000
  H   H16       1.0  0.09310  0.65900  0.59970  1.0000
  H   H17       1.0  0.57940  0.87100  0.01260  1.0000
  H   H18       1.0  0.92060  0.37100  0.48740  1.0000
  H   H19       1.0  0.42060  0.12900  0.98740  1.0000
  H   H20       1.0  0.07940  0.62900  0.51260  1.0000
  H   H21       1.0  0.69070  0.81800  0.05640  1.0000
  H   H22       1.0  0.80930  0.31800  0.44360  1.0000
  H   H23       1.0  0.30930  0.18200  0.94360  1.0000
  H   H24       1.0  0.19070  0.68200  0.55640  1.0000
  C   C17       1.0  0.47660  0.45350  0.24755  1.0000
  C   C18       1.0  0.02340  0.95350  0.25245  1.0000
  C   C19       1.0  0.52340  0.54650  0.75245  1.0000
  C   C20       1.0  0.97660  0.04650  0.74755  1.0000
  C   C21       1.0  0.57240  0.37210  0.26436  1.0000
  C   C22       1.0  0.92760  0.87210  0.23564  1.0000
  C   C23       1.0  0.42760  0.62790  0.73564  1.0000
  C   C24       1.0  0.07240  0.12790  0.76436  1.0000
  H   H25       1.0  0.54570  0.29830  0.27490  1.0000
  H   H26       1.0  0.95430  0.79830  0.22510  1.0000
  H   H27       1.0  0.45430  0.70170  0.72510  1.0000
  H   H28       1.0  0.04570  0.20170  0.77490  1.0000
  H   H29       1.0  0.62470  0.39840  0.30810  1.0000
  H   H30       1.0  0.87530  0.89840  0.19190  1.0000
  H   H31       1.0  0.37530  0.60160  0.69190  1.0000
  H   H32       1.0  0.12470  0.10160  0.80810  1.0000
  H   H33       1.0  0.60790  0.36770  0.22090  1.0000
  H   H34       1.0  0.89210  0.86770  0.27910  1.0000
  H   H35       1.0  0.39210  0.63230  0.77910  1.0000
  H   H36       1.0  0.10790  0.13230  0.72090  1.0000
  C   C25       1.0  0.41710  0.69740  0.48841  1.0000
  C   C26       1.0  0.08290  0.19740  0.01159  1.0000
  C   C27       1.0  0.58290  0.30260  0.51159  1.0000
  C   C28       1.0  0.91710  0.80260  0.98841  1.0000
  C   C29       1.0  0.36780  0.81520  0.48211  1.0000
  C   C30       1.0  0.13220  0.31520  0.01789  1.0000
  C   C31       1.0  0.63220  0.18480  0.51789  1.0000
  C   C32       1.0  0.86780  0.68480  0.98211  1.0000
  H   H37       1.0  0.40440  0.86100  0.44980  1.0000
  H   H38       1.0  0.09560  0.36100  0.05020  1.0000
  H   H39       1.0  0.59560  0.13900  0.55020  1.0000
  H   H40       1.0  0.90440  0.63900  0.94980  1.0000
  H   H41       1.0  0.37760  0.84890  0.53210  1.0000
  H   H42       1.0  0.12240  0.34890  0.96790  1.0000
  H   H43       1.0  0.62240  0.15110  0.46790  1.0000
  H   H44       1.0  0.87760  0.65110  0.03210  1.0000
  H   H45       1.0  0.29010  0.81070  0.46040  1.0000
  H   H46       1.0  0.20990  0.31070  0.03960  1.0000
  H   H47       1.0  0.70990  0.18930  0.53960  1.0000
  H   H48       1.0  0.79010  0.68930  0.96040  1.0000
  C   C33       1.0  0.69120  0.57880  0.49620  1.0000
  C   C34       1.0  0.80880  0.07880  0.00380  1.0000
  C   C35       1.0  0.30880  0.42120  0.50380  1.0000
  C   C36       1.0  0.19120  0.92120  0.99620  1.0000
  C   C37       1.0  0.80770  0.61920  0.49700  1.0000
  C   C38       1.0  0.69230  0.11920  0.00300  1.0000
  C   C39       1.0  0.19230  0.38080  0.50300  1.0000
  C   C40       1.0  0.30770  0.88080  0.99700  1.0000
  H   H49       1.0  0.81780  0.69280  0.52050  1.0000
  H   H50       1.0  0.68220  0.19280  0.97950  1.0000
  H   H51       1.0  0.18220  0.30720  0.47950  1.0000
  H   H52       1.0  0.31780  0.80720  0.02050  1.0000
  H   H53       1.0  0.82000  0.62400  0.44540  1.0000
  H   H54       1.0  0.68000  0.12400  0.05460  1.0000
  H   H55       1.0  0.18000  0.37600  0.55460  1.0000
  H   H56       1.0  0.32000  0.87600  0.94540  1.0000
  H   H57       1.0  0.85950  0.56670  0.52550  1.0000
  H   H58       1.0  0.64050  0.06670  0.97450  1.0000
  H   H59       1.0  0.14050  0.43330  0.47450  1.0000
  H   H60       1.0  0.35950  0.93330  0.02550  1.0000
