data_image0
_chemical_formula_structural       U4S12O32N12C8H8C16H8C8H8C4
_chemical_formula_sum              "U4 S12 O32 N12 C36 H24"
_cell_length_a       10.65
_cell_length_b       9.5487
_cell_length_c       22.873
_cell_angle_alpha    90
_cell_angle_beta     100.563
_cell_angle_gamma    90

_space_group_name_H-M_alt    "P 1"
_space_group_IT_number       1

loop_
  _space_group_symop_operation_xyz
  'x, y, z'

loop_
  _atom_site_type_symbol
  _atom_site_label
  _atom_site_symmetry_multiplicity
  _atom_site_fract_x
  _atom_site_fract_y
  _atom_site_fract_z
  _atom_site_occupancy
  U   U1        1.0  0.53369  0.26066  0.11999  1.0000
  U   U2        1.0  0.96631  0.26066  0.38001  1.0000
  U   U3        1.0  0.46631  0.73934  0.88001  1.0000
  U   U4        1.0  0.03369  0.73934  0.61999  1.0000
  S   S1        1.0  0.42200  0.20860  0.33260  1.0000
  S   S2        1.0  0.07800  0.20860  0.16740  1.0000
  S   S3        1.0  0.57800  0.79140  0.66740  1.0000
  S   S4        1.0  0.92200  0.79140  0.83260  1.0000
  S   S5        1.0  0.68060  0.43680  0.53253  1.0000
  S   S6        1.0  0.81940  0.43680  0.96747  1.0000
  S   S7        1.0  0.31940  0.56320  0.46747  1.0000
  S   S8        1.0  0.18060  0.56320  0.03253  1.0000
  S   S9        1.0  0.33460  0.05730  0.53947  1.0000
  S   S10       1.0  0.16540  0.05730  0.96053  1.0000
  S   S11       1.0  0.66540  0.94270  0.46053  1.0000
  S   S12       1.0  0.83460  0.94270  0.03947  1.0000
  O   O1        1.0  0.60210  0.37540  0.21680  1.0000
  O   O2        1.0  0.89790  0.37540  0.28320  1.0000
  O   O3        1.0  0.39790  0.62460  0.78320  1.0000
  O   O4        1.0  0.10210  0.62460  0.71680  1.0000
  O   O5        1.0  0.47820  0.19400  0.21520  1.0000
  O   O6        1.0  0.02180  0.19400  0.28480  1.0000
  O   O7        1.0  0.52180  0.80600  0.78480  1.0000
  O   O8        1.0  0.97820  0.80600  0.71520  1.0000
  O   O9        1.0  0.81790  0.45580  0.38580  1.0000
  O   O10       1.0  0.68210  0.45580  0.11420  1.0000
  O   O11       1.0  0.18210  0.54420  0.61420  1.0000
  O   O12       1.0  0.31790  0.54420  0.88580  1.0000
  O   O13       1.0  0.89340  0.34590  0.46820  1.0000
  O   O14       1.0  0.60660  0.34590  0.03180  1.0000
  O   O15       1.0  0.10660  0.65410  0.53180  1.0000
  O   O16       1.0  0.39340  0.65410  0.96820  1.0000
  O   O17       1.0  0.10300  0.05100  0.39080  1.0000
  O   O18       1.0  0.39700  0.05100  0.10920  1.0000
  O   O19       1.0  0.89700  0.94900  0.60920  1.0000
  O   O20       1.0  0.60300  0.94900  0.89080  1.0000
  O   O21       1.0  0.07020  0.14460  0.47210  1.0000
  O   O22       1.0  0.42980  0.14460  0.02790  1.0000
  O   O23       1.0  0.92980  0.85540  0.52790  1.0000
  O   O24       1.0  0.57020  0.85540  0.97210  1.0000
  O   O25       1.0  0.40220  0.37570  0.10800  1.0000
  O   O26       1.0  0.09780  0.37570  0.39200  1.0000
  O   O27       1.0  0.59780  0.62430  0.89200  1.0000
  O   O28       1.0  0.90220  0.62430  0.60800  1.0000
  O   O29       1.0  0.66510  0.14620  0.13060  1.0000
  O   O30       1.0  0.83490  0.14620  0.36940  1.0000
  O   O31       1.0  0.33490  0.85380  0.86940  1.0000
  O   O32       1.0  0.16510  0.85380  0.63060  1.0000
  N   N1        1.0  0.55260  0.31770  0.43280  1.0000
  N   N2        1.0  0.94740  0.31770  0.06720  1.0000
  N   N3        1.0  0.44740  0.68230  0.56720  1.0000
  N   N4        1.0  0.05260  0.68230  0.93280  1.0000
  N   N5        1.0  0.50490  0.24320  0.52450  1.0000
  N   N6        1.0  0.99510  0.24320  0.97550  1.0000
  N   N7        1.0  0.49510  0.75680  0.47550  1.0000
  N   N8        1.0  0.00490  0.75680  0.02450  1.0000
  N   N9        1.0  0.38360  0.15710  0.43830  1.0000
  N   N10       1.0  0.11640  0.15710  0.06170  1.0000
  N   N11       1.0  0.61640  0.84290  0.56170  1.0000
  N   N12       1.0  0.88360  0.84290  0.93830  1.0000
  C   C1        1.0  0.53990  0.29530  0.24170  1.0000
  C   C2        1.0  0.96010  0.29530  0.25830  1.0000
  C   C3        1.0  0.46010  0.70470  0.75830  1.0000
  C   C4        1.0  0.03990  0.70470  0.74170  1.0000
  C   C5        1.0  0.53110  0.32880  0.30910  1.0000
  C   C6        1.0  0.96890  0.32880  0.19090  1.0000
  C   C7        1.0  0.46890  0.67120  0.69090  1.0000
  C   C8        1.0  0.03110  0.67120  0.80910  1.0000
  H   H1        1.0  0.50160  0.42410  0.31250  1.0000
  H   H2        1.0  0.99840  0.42410  0.18750  1.0000
  H   H3        1.0  0.49840  0.57590  0.68750  1.0000
  H   H4        1.0  0.00160  0.57590  0.81250  1.0000
  H   H5        1.0  0.61470  0.31960  0.33410  1.0000
  H   H6        1.0  0.88530  0.31960  0.16590  1.0000
  H   H7        1.0  0.38530  0.68040  0.66590  1.0000
  H   H8        1.0  0.11470  0.68040  0.83410  1.0000
  C   C9        1.0  0.45920  0.23260  0.40870  1.0000
  C   C10       1.0  0.04080  0.23260  0.09130  1.0000
  C   C11       1.0  0.54080  0.76740  0.59130  1.0000
  C   C12       1.0  0.95920  0.76740  0.90870  1.0000
  C   C13       1.0  0.56490  0.31940  0.49260  1.0000
  C   C14       1.0  0.93510  0.31940  0.00740  1.0000
  C   C15       1.0  0.43510  0.68060  0.50740  1.0000
  C   C16       1.0  0.06490  0.68060  0.99260  1.0000
  C   C17       1.0  0.41680  0.16130  0.49630  1.0000
  C   C18       1.0  0.08320  0.16130  0.00370  1.0000
  C   C19       1.0  0.58320  0.83870  0.50370  1.0000
  C   C20       1.0  0.91680  0.83870  0.99630  1.0000
  C   C21       1.0  0.73800  0.52200  0.47260  1.0000
  C   C22       1.0  0.76200  0.52200  0.02740  1.0000
  C   C23       1.0  0.26200  0.47800  0.52740  1.0000
  C   C24       1.0  0.23800  0.47800  0.97260  1.0000
  H   H9        1.0  0.66450  0.55720  0.44520  1.0000
  H   H10       1.0  0.83550  0.55720  0.05480  1.0000
  H   H11       1.0  0.33550  0.44280  0.55480  1.0000
  H   H12       1.0  0.16450  0.44280  0.94520  1.0000
  H   H13       1.0  0.78780  0.60270  0.48900  1.0000
  H   H14       1.0  0.71220  0.60270  0.01100  1.0000
  H   H15       1.0  0.21220  0.39730  0.51100  1.0000
  H   H16       1.0  0.28780  0.39730  0.98900  1.0000
  C   C25       1.0  0.81780  0.43890  0.43730  1.0000
  C   C26       1.0  0.68220  0.43890  0.06270  1.0000
  C   C27       1.0  0.18220  0.56110  0.56270  1.0000
  C   C28       1.0  0.31780  0.56110  0.93730  1.0000
  C   C29       1.0  0.22570  0.97170  0.48080  1.0000
  C   C30       1.0  0.27430  0.97170  0.01920  1.0000
  C   C31       1.0  0.77430  0.02830  0.51920  1.0000
  C   C32       1.0  0.72570  0.02830  0.98080  1.0000
  H   H17       1.0  0.27550  0.92780  0.45440  1.0000
  H   H18       1.0  0.22450  0.92780  0.04560  1.0000
  H   H19       1.0  0.72450  0.07220  0.54560  1.0000
  H   H20       1.0  0.77550  0.07220  0.95440  1.0000
  H   H21       1.0  0.18290  0.89740  0.49850  1.0000
  H   H22       1.0  0.31710  0.89740  0.00150  1.0000
  H   H23       1.0  0.81710  0.10260  0.50150  1.0000
  H   H24       1.0  0.68290  0.10260  0.99850  1.0000
  C   C33       1.0  0.12850  0.05820  0.44510  1.0000
  C   C34       1.0  0.37150  0.05820  0.05490  1.0000
  C   C35       1.0  0.87150  0.94180  0.55490  1.0000
  C   C36       1.0  0.62850  0.94180  0.94510  1.0000
