data_image0
_chemical_formula_structural       C4H12C24Mn4O52Cr4H4
_chemical_formula_sum              "C28 H16 Mn4 O52 Cr4"
_cell_length_a       8.9951
_cell_length_b       16.2549
_cell_length_c       15.2284
_cell_angle_alpha    90
_cell_angle_beta     98.07
_cell_angle_gamma    90

_space_group_name_H-M_alt    "P 1"
_space_group_IT_number       1

loop_
  _space_group_symop_operation_xyz
  'x, y, z'

loop_
  _atom_site_type_symbol
  _atom_site_label
  _atom_site_symmetry_multiplicity
  _atom_site_fract_x
  _atom_site_fract_y
  _atom_site_fract_z
  _atom_site_occupancy
  C   C1        1.0  0.71370  0.55510  0.05290  1.0000
  C   C2        1.0  0.28630  0.05510  0.44710  1.0000
  C   C3        1.0  0.28630  0.44490  0.94710  1.0000
  C   C4        1.0  0.71370  0.94490  0.55290  1.0000
  H   H1        1.0  0.79390  0.58970  0.03920  1.0000
  H   H2        1.0  0.20610  0.08970  0.46080  1.0000
  H   H3        1.0  0.20610  0.41030  0.96080  1.0000
  H   H4        1.0  0.79390  0.91030  0.53920  1.0000
  H   H5        1.0  0.73480  0.53720  0.11340  1.0000
  H   H6        1.0  0.26520  0.03720  0.38660  1.0000
  H   H7        1.0  0.26520  0.46280  0.88660  1.0000
  H   H8        1.0  0.73480  0.96280  0.61340  1.0000
  H   H9        1.0  0.62130  0.58540  0.04450  1.0000
  H   H10       1.0  0.37870  0.08540  0.45550  1.0000
  H   H11       1.0  0.37870  0.41460  0.95550  1.0000
  H   H12       1.0  0.62130  0.91460  0.54450  1.0000
  C   C5        1.0  0.49820  0.61945  0.82796  1.0000
  C   C6        1.0  0.50180  0.11945  0.67204  1.0000
  C   C7        1.0  0.50180  0.38055  0.17204  1.0000
  C   C8        1.0  0.49820  0.88055  0.32796  1.0000
  C   C9        1.0  0.43110  0.54596  0.77022  1.0000
  C   C10       1.0  0.56890  0.04596  0.72978  1.0000
  C   C11       1.0  0.56890  0.45404  0.22978  1.0000
  C   C12       1.0  0.43110  0.95404  0.27022  1.0000
  C   C13       1.0  0.01200  0.58059  0.84591  1.0000
  C   C14       1.0  0.98800  0.08059  0.65409  1.0000
  C   C15       1.0  0.98800  0.41941  0.15409  1.0000
  C   C16       1.0  0.01200  0.91941  0.34591  1.0000
  C   C17       1.0  0.92940  0.59970  0.75215  1.0000
  C   C18       1.0  0.07060  0.09970  0.74785  1.0000
  C   C19       1.0  0.07060  0.40030  0.24785  1.0000
  C   C20       1.0  0.92940  0.90030  0.25215  1.0000
  C   C21       1.0  0.81740  0.33267  0.76122  1.0000
  C   C22       1.0  0.18260  0.83267  0.73878  1.0000
  C   C23       1.0  0.18260  0.66733  0.23878  1.0000
  C   C24       1.0  0.81740  0.16733  0.26122  1.0000
  C   C25       1.0  0.74500  0.30153  0.84133  1.0000
  C   C26       1.0  0.25500  0.80153  0.65867  1.0000
  C   C27       1.0  0.25500  0.69847  0.15867  1.0000
  C   C28       1.0  0.74500  0.19847  0.34133  1.0000
  Mn  Mn1       1.0  0.73121  0.48651  0.85266  1.0000
  Mn  Mn2       1.0  0.26879  0.98651  0.64734  1.0000
  Mn  Mn3       1.0  0.26879  0.51349  0.14734  1.0000
  Mn  Mn4       1.0  0.73121  0.01349  0.35266  1.0000
  O   O1        1.0  0.95110  0.53785  0.89728  1.0000
  O   O2        1.0  0.04890  0.03785  0.60272  1.0000
  O   O3        1.0  0.04890  0.46215  0.10272  1.0000
  O   O4        1.0  0.95110  0.96215  0.39728  1.0000
  O   O5        1.0  0.70080  0.48495  0.99541  1.0000
  O   O6        1.0  0.29920  0.98495  0.50459  1.0000
  O   O7        1.0  0.29920  0.51505  0.00459  1.0000
  O   O8        1.0  0.70080  0.01505  0.49541  1.0000
  O   O9        1.0  0.79710  0.57577  0.73419  1.0000
  O   O10       1.0  0.20290  0.07577  0.76581  1.0000
  O   O11       1.0  0.20290  0.42423  0.26581  1.0000
  O   O12       1.0  0.79710  0.92423  0.23419  1.0000
  O   O13       1.0  0.41350  0.68240  0.82516  1.0000
  O   O14       1.0  0.58650  0.18240  0.67484  1.0000
  O   O15       1.0  0.58650  0.31760  0.17484  1.0000
  O   O16       1.0  0.41350  0.81760  0.32516  1.0000
  O   O17       1.0  0.85110  0.27683  0.70890  1.0000
  O   O18       1.0  0.14890  0.77683  0.79110  1.0000
  O   O19       1.0  0.14890  0.72317  0.29110  1.0000
  O   O20       1.0  0.85110  0.22317  0.20890  1.0000
  O   O21       1.0  0.14390  0.61130  0.86243  1.0000
  O   O22       1.0  0.85610  0.11130  0.63757  1.0000
  O   O23       1.0  0.85610  0.38870  0.13757  1.0000
  O   O24       1.0  0.14390  0.88870  0.36243  1.0000
  O   O25       1.0  0.30220  0.55826  0.72709  1.0000
  O   O26       1.0  0.69780  0.05826  0.77291  1.0000
  O   O27       1.0  0.69780  0.44174  0.27291  1.0000
  O   O28       1.0  0.30220  0.94174  0.22709  1.0000
  O   O29       1.0  0.73370  0.22353  0.84657  1.0000
  O   O30       1.0  0.26630  0.72353  0.65343  1.0000
  O   O31       1.0  0.26630  0.77647  0.15343  1.0000
  O   O32       1.0  0.73370  0.27647  0.34657  1.0000
  O   O33       1.0  0.00540  0.63792  0.70153  1.0000
  O   O34       1.0  0.99460  0.13792  0.79847  1.0000
  O   O35       1.0  0.99460  0.36208  0.29847  1.0000
  O   O36       1.0  0.00540  0.86208  0.20153  1.0000
  O   O37       1.0  0.83420  0.40730  0.75390  1.0000
  O   O38       1.0  0.16580  0.90730  0.74610  1.0000
  O   O39       1.0  0.16580  0.59270  0.24610  1.0000
  O   O40       1.0  0.83420  0.09270  0.25390  1.0000
  O   O41       1.0  0.70400  0.35305  0.89218  1.0000
  O   O42       1.0  0.29600  0.85305  0.60782  1.0000
  O   O43       1.0  0.29600  0.64695  0.10782  1.0000
  O   O44       1.0  0.70400  0.14695  0.39218  1.0000
  O   O45       1.0  0.62370  0.61206  0.87061  1.0000
  O   O46       1.0  0.37630  0.11206  0.62939  1.0000
  O   O47       1.0  0.37630  0.38794  0.12939  1.0000
  O   O48       1.0  0.62370  0.88794  0.37061  1.0000
  O   O49       1.0  0.50870  0.48315  0.76934  1.0000
  O   O50       1.0  0.49130  0.98315  0.73066  1.0000
  O   O51       1.0  0.49130  0.51685  0.23066  1.0000
  O   O52       1.0  0.50870  0.01685  0.26934  1.0000
  Cr  Cr1       1.0  0.78925  0.16556  0.74197  1.0000
  Cr  Cr2       1.0  0.21075  0.66556  0.75803  1.0000
  Cr  Cr3       1.0  0.21075  0.83444  0.25803  1.0000
  Cr  Cr4       1.0  0.78925  0.33444  0.24197  1.0000
  H   H13       1.0  0.74300  0.44370  0.02280  1.0000
  H   H14       1.0  0.25700  0.94370  0.47720  1.0000
  H   H15       1.0  0.25700  0.55630  0.97720  1.0000
  H   H16       1.0  0.74300  0.05630  0.52280  1.0000
