data_image0
_chemical_formula_structural       CuN4O8C10H2C2H2
_chemical_formula_sum              "Cu1 N4 O8 C12 H4"
_cell_length_a       6.469
_cell_length_b       8.0071
_cell_length_c       11.6101
_cell_angle_alpha    74.802
_cell_angle_beta     86.198
_cell_angle_gamma    84.88

_space_group_name_H-M_alt    "P 1"
_space_group_IT_number       1

loop_
  _space_group_symop_operation_xyz
  'x, y, z'

loop_
  _atom_site_type_symbol
  _atom_site_label
  _atom_site_symmetry_multiplicity
  _atom_site_fract_x
  _atom_site_fract_y
  _atom_site_fract_z
  _atom_site_occupancy
  Cu  Cu1       1.0  0.50000  0.50000  0.50000  1.0000
  N   N1        1.0  0.70620  0.62580  0.55550  1.0000
  N   N2        1.0  0.29380  0.37420  0.44450  1.0000
  N   N3        1.0  0.99660  0.75280  0.66710  1.0000
  N   N4        1.0  0.00340  0.24720  0.33290  1.0000
  O   O1        1.0  0.68670  0.29900  0.56820  1.0000
  O   O2        1.0  0.31330  0.70100  0.43180  1.0000
  O   O3        1.0  0.96680  0.21950  0.67750  1.0000
  O   O4        1.0  0.03320  0.78050  0.32250  1.0000
  O   O5        1.0  0.10250  0.40890  0.86320  1.0000
  O   O6        1.0  0.89750  0.59110  0.13680  1.0000
  O   O7        1.0  0.34270  0.45690  0.71210  1.0000
  O   O8        1.0  0.65730  0.54310  0.28790  1.0000
  C   C1        1.0  0.83780  0.32790  0.62380  1.0000
  C   C2        1.0  0.16220  0.67210  0.37620  1.0000
  C   C3        1.0  0.16270  0.47060  0.75570  1.0000
  C   C4        1.0  0.83730  0.52940  0.24430  1.0000
  C   C5        1.0  0.85170  0.51850  0.62020  1.0000
  C   C6        1.0  0.14830  0.48150  0.37980  1.0000
  C   C7        1.0  0.99730  0.58280  0.67540  1.0000
  C   C8        1.0  0.00270  0.41720  0.32460  1.0000
  C   C9        1.0  0.85260  0.85750  0.60120  1.0000
  C   C10       1.0  0.14740  0.14250  0.39880  1.0000
  H   H1        1.0  0.85090  0.97640  0.59250  1.0000
  H   H2        1.0  0.14910  0.02360  0.40750  1.0000
  C   C11       1.0  0.70560  0.79510  0.54530  1.0000
  C   C12       1.0  0.29440  0.20490  0.45470  1.0000
  H   H3        1.0  0.60640  0.87160  0.50050  1.0000
  H   H4        1.0  0.39360  0.12840  0.49950  1.0000
