data_image0
_chemical_formula_structural       Np8O48C24H8C16H8C8H8C8H8C8O16C20H4C4H4C8H8
_chemical_formula_sum              "Np8 O64 C96 H48"
_cell_length_a       8.6473
_cell_length_b       17.7732
_cell_length_c       21.715
_cell_angle_alpha    90
_cell_angle_beta     90
_cell_angle_gamma    90

_space_group_name_H-M_alt    "P 1"
_space_group_IT_number       1

loop_
  _space_group_symop_operation_xyz
  'x, y, z'

loop_
  _atom_site_type_symbol
  _atom_site_label
  _atom_site_symmetry_multiplicity
  _atom_site_fract_x
  _atom_site_fract_y
  _atom_site_fract_z
  _atom_site_occupancy
  Np  Np1       1.0  0.49060  0.59223  0.37077  1.0000
  Np  Np2       1.0  0.50940  0.40777  0.87077  1.0000
  Np  Np3       1.0  0.50940  0.59223  0.12923  1.0000
  Np  Np4       1.0  0.49060  0.40777  0.62923  1.0000
  Np  Np5       1.0  0.99060  0.09223  0.37077  1.0000
  Np  Np6       1.0  0.00940  0.90777  0.87077  1.0000
  Np  Np7       1.0  0.00940  0.09223  0.12923  1.0000
  Np  Np8       1.0  0.99060  0.90777  0.62923  1.0000
  O   O1        1.0  0.40300  0.57930  0.30160  1.0000
  O   O2        1.0  0.59700  0.42070  0.80160  1.0000
  O   O3        1.0  0.59700  0.57930  0.19840  1.0000
  O   O4        1.0  0.40300  0.42070  0.69840  1.0000
  O   O5        1.0  0.90300  0.07930  0.30160  1.0000
  O   O6        1.0  0.09700  0.92070  0.80160  1.0000
  O   O7        1.0  0.09700  0.07930  0.19840  1.0000
  O   O8        1.0  0.90300  0.92070  0.69840  1.0000
  O   O9        1.0  0.59100  0.61100  0.44220  1.0000
  O   O10       1.0  0.40900  0.38900  0.94220  1.0000
  O   O11       1.0  0.40900  0.61100  0.05780  1.0000
  O   O12       1.0  0.59100  0.38900  0.55780  1.0000
  O   O13       1.0  0.09100  0.11100  0.44220  1.0000
  O   O14       1.0  0.90900  0.88900  0.94220  1.0000
  O   O15       1.0  0.90900  0.11100  0.05780  1.0000
  O   O16       1.0  0.09100  0.88900  0.55780  1.0000
  O   O17       1.0  0.36000  0.71600  0.38160  1.0000
  O   O18       1.0  0.64000  0.28400  0.88160  1.0000
  O   O19       1.0  0.64000  0.71600  0.11840  1.0000
  O   O20       1.0  0.36000  0.28400  0.61840  1.0000
  O   O21       1.0  0.86000  0.21600  0.38160  1.0000
  O   O22       1.0  0.14000  0.78400  0.88160  1.0000
  O   O23       1.0  0.14000  0.21600  0.11840  1.0000
  O   O24       1.0  0.86000  0.78400  0.61840  1.0000
  O   O25       1.0  0.22700  0.61500  0.41330  1.0000
  O   O26       1.0  0.77300  0.38500  0.91330  1.0000
  O   O27       1.0  0.77300  0.61500  0.08670  1.0000
  O   O28       1.0  0.22700  0.38500  0.58670  1.0000
  O   O29       1.0  0.72700  0.11500  0.41330  1.0000
  O   O30       1.0  0.27300  0.88500  0.91330  1.0000
  O   O31       1.0  0.27300  0.11500  0.08670  1.0000
  O   O32       1.0  0.72700  0.88500  0.58670  1.0000
  O   O33       1.0  0.11600  0.97200  0.37100  1.0000
  O   O34       1.0  0.88400  0.02800  0.87100  1.0000
  O   O35       1.0  0.88400  0.97200  0.12900  1.0000
  O   O36       1.0  0.11600  0.02800  0.62900  1.0000
  O   O37       1.0  0.61600  0.47200  0.37100  1.0000
  O   O38       1.0  0.38400  0.52800  0.87100  1.0000
  O   O39       1.0  0.38400  0.47200  0.12900  1.0000
  O   O40       1.0  0.61600  0.52800  0.62900  1.0000
  O   O41       1.0  0.87400  0.98000  0.40790  1.0000
  O   O42       1.0  0.12600  0.02000  0.90790  1.0000
  O   O43       1.0  0.12600  0.98000  0.09210  1.0000
  O   O44       1.0  0.87400  0.02000  0.59210  1.0000
  O   O45       1.0  0.37400  0.48000  0.40790  1.0000
  O   O46       1.0  0.62600  0.52000  0.90790  1.0000
  O   O47       1.0  0.62600  0.48000  0.09210  1.0000
  O   O48       1.0  0.37400  0.52000  0.59210  1.0000
  C   C1        1.0  0.24100  0.67800  0.40250  1.0000
  C   C2        1.0  0.75900  0.32200  0.90250  1.0000
  C   C3        1.0  0.75900  0.67800  0.09750  1.0000
  C   C4        1.0  0.24100  0.32200  0.59750  1.0000
  C   C5        1.0  0.74100  0.17800  0.40250  1.0000
  C   C6        1.0  0.25900  0.82200  0.90250  1.0000
  C   C7        1.0  0.25900  0.17800  0.09750  1.0000
  C   C8        1.0  0.74100  0.82200  0.59750  1.0000
  C   C9        1.0  0.10000  0.73300  0.41900  1.0000
  C   C10       1.0  0.90000  0.26700  0.91900  1.0000
  C   C11       1.0  0.90000  0.73300  0.08100  1.0000
  C   C12       1.0  0.10000  0.26700  0.58100  1.0000
  C   C13       1.0  0.60000  0.23300  0.41900  1.0000
  C   C14       1.0  0.40000  0.76700  0.91900  1.0000
  C   C15       1.0  0.40000  0.23300  0.08100  1.0000
  C   C16       1.0  0.60000  0.76700  0.58100  1.0000
  C   C17       1.0  0.11100  0.81500  0.40900  1.0000
  C   C18       1.0  0.88900  0.18500  0.90900  1.0000
  C   C19       1.0  0.88900  0.81500  0.09100  1.0000
  C   C20       1.0  0.11100  0.18500  0.59100  1.0000
  C   C21       1.0  0.61100  0.31500  0.40900  1.0000
  C   C22       1.0  0.38900  0.68500  0.90900  1.0000
  C   C23       1.0  0.38900  0.31500  0.09100  1.0000
  C   C24       1.0  0.61100  0.68500  0.59100  1.0000
  H   H1        1.0  0.20430  0.83580  0.39370  1.0000
  H   H2        1.0  0.79570  0.16420  0.89370  1.0000
  H   H3        1.0  0.79570  0.83580  0.10630  1.0000
  H   H4        1.0  0.20430  0.16420  0.60630  1.0000
  H   H5        1.0  0.70430  0.33580  0.39370  1.0000
  H   H6        1.0  0.29570  0.66420  0.89370  1.0000
  H   H7        1.0  0.29570  0.33580  0.10630  1.0000
  H   H8        1.0  0.70430  0.66420  0.60630  1.0000
  C   C25       1.0  0.99720  0.85760  0.42140  1.0000
  C   C26       1.0  0.00280  0.14240  0.92140  1.0000
  C   C27       1.0  0.00280  0.85760  0.07860  1.0000
  C   C28       1.0  0.99720  0.14240  0.57860  1.0000
  C   C29       1.0  0.49720  0.35760  0.42140  1.0000
  C   C30       1.0  0.50280  0.64240  0.92140  1.0000
  C   C31       1.0  0.50280  0.35760  0.07860  1.0000
  C   C32       1.0  0.49720  0.64240  0.57860  1.0000
  C   C33       1.0  0.85650  0.82540  0.43970  1.0000
  C   C34       1.0  0.14350  0.17460  0.93970  1.0000
  C   C35       1.0  0.14350  0.82540  0.06030  1.0000
  C   C36       1.0  0.85650  0.17460  0.56030  1.0000
  C   C37       1.0  0.35650  0.32540  0.43970  1.0000
  C   C38       1.0  0.64350  0.67460  0.93970  1.0000
  C   C39       1.0  0.64350  0.32540  0.06030  1.0000
  C   C40       1.0  0.35650  0.67460  0.56030  1.0000
  H   H9        1.0  0.76770  0.85630  0.44450  1.0000
  H   H10       1.0  0.23230  0.14370  0.94450  1.0000
  H   H11       1.0  0.23230  0.85630  0.05550  1.0000
  H   H12       1.0  0.76770  0.14370  0.55550  1.0000
  H   H13       1.0  0.26770  0.35630  0.44450  1.0000
  H   H14       1.0  0.73230  0.64370  0.94450  1.0000
  H   H15       1.0  0.73230  0.35630  0.05550  1.0000
  H   H16       1.0  0.26770  0.64370  0.55550  1.0000
  C   C41       1.0  0.84620  0.74810  0.45080  1.0000
  C   C42       1.0  0.15380  0.25190  0.95080  1.0000
  C   C43       1.0  0.15380  0.74810  0.04920  1.0000
  C   C44       1.0  0.84620  0.25190  0.54920  1.0000
  C   C45       1.0  0.34620  0.24810  0.45080  1.0000
  C   C46       1.0  0.65380  0.75190  0.95080  1.0000
  C   C47       1.0  0.65380  0.24810  0.04920  1.0000
  C   C48       1.0  0.34620  0.75190  0.54920  1.0000
  H   H17       1.0  0.75300  0.72560  0.46480  1.0000
  H   H18       1.0  0.24700  0.27440  0.96480  1.0000
  H   H19       1.0  0.24700  0.72560  0.03520  1.0000
  H   H20       1.0  0.75300  0.27440  0.53520  1.0000
  H   H21       1.0  0.25300  0.22560  0.46480  1.0000
  H   H22       1.0  0.74700  0.77440  0.96480  1.0000
  H   H23       1.0  0.74700  0.22560  0.03520  1.0000
  H   H24       1.0  0.25300  0.77440  0.53520  1.0000
  C   C49       1.0  0.97840  0.70570  0.44050  1.0000
  C   C50       1.0  0.02160  0.29430  0.94050  1.0000
  C   C51       1.0  0.02160  0.70570  0.05950  1.0000
  C   C52       1.0  0.97840  0.29430  0.55950  1.0000
  C   C53       1.0  0.47840  0.20570  0.44050  1.0000
  C   C54       1.0  0.52160  0.79430  0.94050  1.0000
  C   C55       1.0  0.52160  0.20570  0.05950  1.0000
  C   C56       1.0  0.47840  0.79430  0.55950  1.0000
  H   H25       1.0  0.97620  0.65370  0.45060  1.0000
  H   H26       1.0  0.02380  0.34630  0.95060  1.0000
  H   H27       1.0  0.02380  0.65370  0.04940  1.0000
  H   H28       1.0  0.97620  0.34630  0.54940  1.0000
  H   H29       1.0  0.47620  0.15370  0.45060  1.0000
  H   H30       1.0  0.52380  0.84630  0.95060  1.0000
  H   H31       1.0  0.52380  0.15370  0.04940  1.0000
  H   H32       1.0  0.47620  0.84630  0.54940  1.0000
  C   C57       1.0  0.97640  0.92980  0.38930  1.0000
  C   C58       1.0  0.02360  0.07020  0.88930  1.0000
  C   C59       1.0  0.02360  0.92980  0.11070  1.0000
  C   C60       1.0  0.97640  0.07020  0.61070  1.0000
  C   C61       1.0  0.47640  0.42980  0.38930  1.0000
  C   C62       1.0  0.52360  0.57020  0.88930  1.0000
  C   C63       1.0  0.52360  0.42980  0.11070  1.0000
  C   C64       1.0  0.47640  0.57020  0.61070  1.0000
  O   O49       1.0  0.64120  0.69840  0.32500  1.0000
  O   O50       1.0  0.35880  0.30160  0.82500  1.0000
  O   O51       1.0  0.35880  0.69840  0.17500  1.0000
  O   O52       1.0  0.64120  0.30160  0.67500  1.0000
  O   O53       1.0  0.14120  0.19840  0.32500  1.0000
  O   O54       1.0  0.85880  0.80160  0.82500  1.0000
  O   O55       1.0  0.85880  0.19840  0.17500  1.0000
  O   O56       1.0  0.14120  0.80160  0.67500  1.0000
  O   O57       1.0  0.75850  0.58610  0.32450  1.0000
  O   O58       1.0  0.24150  0.41390  0.82450  1.0000
  O   O59       1.0  0.24150  0.58610  0.17550  1.0000
  O   O60       1.0  0.75850  0.41390  0.67550  1.0000
  O   O61       1.0  0.25850  0.08610  0.32450  1.0000
  O   O62       1.0  0.74150  0.91390  0.82450  1.0000
  O   O63       1.0  0.74150  0.08610  0.17550  1.0000
  O   O64       1.0  0.25850  0.91390  0.67550  1.0000
  C   C65       1.0  0.76170  0.67400  0.31120  1.0000
  C   C66       1.0  0.23830  0.32600  0.81120  1.0000
  C   C67       1.0  0.23830  0.67400  0.18880  1.0000
  C   C68       1.0  0.76170  0.32600  0.68880  1.0000
  C   C69       1.0  0.26170  0.17400  0.31120  1.0000
  C   C70       1.0  0.73830  0.82600  0.81120  1.0000
  C   C71       1.0  0.73830  0.17400  0.18880  1.0000
  C   C72       1.0  0.26170  0.82600  0.68880  1.0000
  C   C73       1.0  0.91260  0.70510  0.28620  1.0000
  C   C74       1.0  0.08740  0.29490  0.78620  1.0000
  C   C75       1.0  0.08740  0.70510  0.21380  1.0000
  C   C76       1.0  0.91260  0.29490  0.71380  1.0000
  C   C77       1.0  0.41260  0.20510  0.28620  1.0000
  C   C78       1.0  0.58740  0.79490  0.78620  1.0000
  C   C79       1.0  0.58740  0.20510  0.21380  1.0000
  C   C80       1.0  0.41260  0.79490  0.71380  1.0000
  C   C81       1.0  0.00000  0.65680  0.25000  1.0000
  C   C82       1.0  0.00000  0.34320  0.75000  1.0000
  C   C83       1.0  0.50000  0.15680  0.25000  1.0000
  C   C84       1.0  0.50000  0.84320  0.75000  1.0000
  H   H33       1.0  0.00000  0.60330  0.25000  1.0000
  H   H34       1.0  0.00000  0.39670  0.75000  1.0000
  H   H35       1.0  0.50000  0.10330  0.25000  1.0000
  H   H36       1.0  0.50000  0.89670  0.75000  1.0000
  C   C85       1.0  0.00000  0.82460  0.25000  1.0000
  C   C86       1.0  0.00000  0.17540  0.75000  1.0000
  C   C87       1.0  0.50000  0.32460  0.25000  1.0000
  C   C88       1.0  0.50000  0.67540  0.75000  1.0000
  H   H37       1.0  0.00000  0.87800  0.25000  1.0000
  H   H38       1.0  0.00000  0.12200  0.75000  1.0000
  H   H39       1.0  0.50000  0.37800  0.25000  1.0000
  H   H40       1.0  0.50000  0.62200  0.75000  1.0000
  C   C89       1.0  0.92180  0.78310  0.29100  1.0000
  C   C90       1.0  0.07820  0.21690  0.79100  1.0000
  C   C91       1.0  0.07820  0.78310  0.20900  1.0000
  C   C92       1.0  0.92180  0.21690  0.70900  1.0000
  C   C93       1.0  0.42180  0.28310  0.29100  1.0000
  C   C94       1.0  0.57820  0.71690  0.79100  1.0000
  C   C95       1.0  0.57820  0.28310  0.20900  1.0000
  C   C96       1.0  0.42180  0.71690  0.70900  1.0000
  H   H41       1.0  0.87140  0.80760  0.32440  1.0000
  H   H42       1.0  0.12860  0.19240  0.82440  1.0000
  H   H43       1.0  0.12860  0.80760  0.17560  1.0000
  H   H44       1.0  0.87140  0.19240  0.67560  1.0000
  H   H45       1.0  0.37140  0.30760  0.32440  1.0000
  H   H46       1.0  0.62860  0.69240  0.82440  1.0000
  H   H47       1.0  0.62860  0.30760  0.17560  1.0000
  H   H48       1.0  0.37140  0.69240  0.67560  1.0000
