data_image0
_chemical_formula_structural       C4H2C4H2C4H2C12H2C4H2C4H2C4Cd2N2H2N2H2O4H2O16
_chemical_formula_sum              "C36 H18 Cd2 N4 O20"
_cell_length_a       10.2148
_cell_length_b       10.2225
_cell_length_c       14.605
_cell_angle_alpha    74.713
_cell_angle_beta     73.547
_cell_angle_gamma    84.322

_space_group_name_H-M_alt    "P 1"
_space_group_IT_number       1

loop_
  _space_group_symop_operation_xyz
  'x, y, z'

loop_
  _atom_site_type_symbol
  _atom_site_label
  _atom_site_symmetry_multiplicity
  _atom_site_fract_x
  _atom_site_fract_y
  _atom_site_fract_z
  _atom_site_occupancy
  C   C1        1.0  0.32380  0.51380  0.50550  1.0000
  C   C2        1.0  0.67620  0.48620  0.49450  1.0000
  C   C3        1.0  0.30170  0.60740  0.56330  1.0000
  C   C4        1.0  0.69830  0.39260  0.43670  1.0000
  H   H1        1.0  0.32260  0.69810  0.53400  1.0000
  H   H2        1.0  0.67740  0.30190  0.46600  1.0000
  C   C5        1.0  0.24860  0.56460  0.66440  1.0000
  C   C6        1.0  0.75140  0.43540  0.33560  1.0000
  C   C7        1.0  0.21920  0.42820  0.70910  1.0000
  C   C8        1.0  0.78080  0.57180  0.29090  1.0000
  H   H3        1.0  0.18610  0.39930  0.77720  1.0000
  H   H4        1.0  0.81390  0.60070  0.22280  1.0000
  C   C9        1.0  0.23970  0.33580  0.65110  1.0000
  C   C10       1.0  0.76030  0.66420  0.34890  1.0000
  C   C11       1.0  0.29190  0.37820  0.55030  1.0000
  C   C12       1.0  0.70810  0.62180  0.44970  1.0000
  H   H5        1.0  0.30590  0.31590  0.51190  1.0000
  H   H6        1.0  0.69410  0.68410  0.48810  1.0000
  C   C13       1.0  0.22200  0.66780  0.72550  1.0000
  C   C14       1.0  0.77800  0.33220  0.27450  1.0000
  C   C15       1.0  0.20890  0.18880  0.69780  1.0000
  C   C16       1.0  0.79110  0.81120  0.30220  1.0000
  C   C17       1.0  0.42400  0.66990  0.34520  1.0000
  C   C18       1.0  0.57600  0.33010  0.65480  1.0000
  C   C19       1.0  0.46660  0.67300  0.23490  1.0000
  C   C20       1.0  0.53340  0.32700  0.76510  1.0000
  C   C21       1.0  0.57040  0.81680  0.07400  1.0000
  C   C22       1.0  0.42960  0.18320  0.92600  1.0000
  C   C23       1.0  0.47300  0.82650  0.02310  1.0000
  C   C24       1.0  0.52700  0.17350  0.97690  1.0000
  H   H7        1.0  0.38240  0.80860  0.05750  1.0000
  H   H8        1.0  0.61760  0.19140  0.94250  1.0000
  C   C25       1.0  0.51030  0.86270  0.92100  1.0000
  C   C26       1.0  0.48970  0.13730  0.07900  1.0000
  C   C27       1.0  0.64690  0.88660  0.87000  1.0000
  C   C28       1.0  0.35310  0.11340  0.13000  1.0000
  H   H9        1.0  0.67230  0.91150  0.80150  1.0000
  H   H10       1.0  0.32770  0.08850  0.19850  1.0000
  C   C29       1.0  0.74530  0.87330  0.92130  1.0000
  C   C30       1.0  0.25470  0.12670  0.07870  1.0000
  C   C31       1.0  0.70700  0.83970  0.02400  1.0000
  C   C32       1.0  0.29300  0.16030  0.97600  1.0000
  H   H11       1.0  0.77200  0.83280  0.05870  1.0000
  H   H12       1.0  0.22800  0.16720  0.94130  1.0000
  C   C33       1.0  0.40220  0.88250  0.86610  1.0000
  C   C34       1.0  0.59780  0.11750  0.13390  1.0000
  C   C35       1.0  0.89450  0.89380  0.86660  1.0000
  C   C36       1.0  0.10550  0.10620  0.13340  1.0000
  Cd  Cd1       1.0  0.17516  0.91612  0.78909  1.0000
  Cd  Cd2       1.0  0.82484  0.08388  0.21091  1.0000
  N   N1        1.0  0.37610  0.55020  0.40270  1.0000
  N   N2        1.0  0.62390  0.44980  0.59730  1.0000
  H   H13       1.0  0.37760  0.48750  0.37300  1.0000
  H   H14       1.0  0.62240  0.51250  0.62700  1.0000
  N   N3        1.0  0.52910  0.78610  0.17910  1.0000
  N   N4        1.0  0.47090  0.21390  0.82090  1.0000
  H   H15       1.0  0.54550  0.84380  0.20770  1.0000
  H   H16       1.0  0.45450  0.15620  0.79230  1.0000
  O   O1        1.0  0.24130  0.78940  0.68070  1.0000
  O   O2        1.0  0.75870  0.21060  0.31930  1.0000
  O   O3        1.0  0.17800  0.63040  0.81530  1.0000
  O   O4        1.0  0.82200  0.36960  0.18470  1.0000
  H   H17       1.0  0.23520  0.58090  0.83810  1.0000
  H   H18       1.0  0.76480  0.41910  0.16190  1.0000
  O   O5        1.0  0.16930  0.15020  0.78930  1.0000
  O   O6        1.0  0.83070  0.84980  0.21070  1.0000
  O   O7        1.0  0.22360  0.10830  0.64400  1.0000
  O   O8        1.0  0.77640  0.89170  0.35600  1.0000
  O   O9        1.0  0.43660  0.77030  0.37180  1.0000
  O   O10       1.0  0.56340  0.22970  0.62820  1.0000
  O   O11       1.0  0.44290  0.57970  0.20510  1.0000
  O   O12       1.0  0.55710  0.42030  0.79490  1.0000
  O   O13       1.0  0.28380  0.84670  0.91340  1.0000
  O   O14       1.0  0.71620  0.15330  0.08660  1.0000
  O   O15       1.0  0.43360  0.93650  0.77690  1.0000
  O   O16       1.0  0.56640  0.06350  0.22310  1.0000
  O   O17       1.0  0.92870  0.92660  0.77500  1.0000
  O   O18       1.0  0.07130  0.07340  0.22500  1.0000
  O   O19       1.0  0.97940  0.87530  0.91510  1.0000
  O   O20       1.0  0.02060  0.12470  0.08490  1.0000
