data_image0
_chemical_formula_structural       Ni2O12C6H6
_chemical_formula_sum              "Ni2 O12 C6 H6"
_cell_length_a       7.053
_cell_length_b       7.053
_cell_length_c       7.9605
_cell_angle_alpha    90
_cell_angle_beta     90
_cell_angle_gamma    120

_space_group_name_H-M_alt    "P 1"
_space_group_IT_number       1

loop_
  _space_group_symop_operation_xyz
  'x, y, z'

loop_
  _atom_site_type_symbol
  _atom_site_label
  _atom_site_symmetry_multiplicity
  _atom_site_fract_x
  _atom_site_fract_y
  _atom_site_fract_z
  _atom_site_occupancy
  Ni  Ni1       1.0  0.33330  0.66670  0.75000  1.0000
  Ni  Ni2       1.0  0.66670  0.33330  0.25000  1.0000
  O   O1        1.0  0.30800  0.89300  0.89170  1.0000
  O   O2        1.0  0.10700  0.41500  0.89170  1.0000
  O   O3        1.0  0.58500  0.69200  0.89170  1.0000
  O   O4        1.0  0.69200  0.10700  0.39170  1.0000
  O   O5        1.0  0.89300  0.58500  0.39170  1.0000
  O   O6        1.0  0.41500  0.30800  0.39170  1.0000
  O   O7        1.0  0.89300  0.30800  0.10830  1.0000
  O   O8        1.0  0.41500  0.10700  0.10830  1.0000
  O   O9        1.0  0.69200  0.58500  0.10830  1.0000
  O   O10       1.0  0.10700  0.69200  0.60830  1.0000
  O   O11       1.0  0.58500  0.89300  0.60830  1.0000
  O   O12       1.0  0.30800  0.41500  0.60830  1.0000
  C   C1        1.0  0.44200  0.00000  1.00000  1.0000
  C   C2        1.0  0.00000  0.44200  1.00000  1.0000
  C   C3        1.0  0.55800  0.55800  1.00000  1.0000
  C   C4        1.0  0.55800  0.00000  0.50000  1.0000
  C   C5        1.0  0.00000  0.55800  0.50000  1.0000
  C   C6        1.0  0.44200  0.44200  0.50000  1.0000
  H   H1        1.0  0.57420  0.00000  1.00000  1.0000
  H   H2        1.0  0.00000  0.57420  1.00000  1.0000
  H   H3        1.0  0.42580  0.42580  1.00000  1.0000
  H   H4        1.0  0.42580  0.00000  0.50000  1.0000
  H   H5        1.0  0.00000  0.42580  0.50000  1.0000
  H   H6        1.0  0.57420  0.57420  0.50000  1.0000
