data_image0
_chemical_formula_structural       U4O32C6H2C4H2C2H2C12H2C4H2C2H2C6
_chemical_formula_sum              "U4 O32 C36 H12"
_cell_length_a       8.986
_cell_length_b       10.5759
_cell_length_c       16.1381
_cell_angle_alpha    71.762
_cell_angle_beta     79.771
_cell_angle_gamma    72.971

_space_group_name_H-M_alt    "P 1"
_space_group_IT_number       1

loop_
  _space_group_symop_operation_xyz
  'x, y, z'

loop_
  _atom_site_type_symbol
  _atom_site_label
  _atom_site_symmetry_multiplicity
  _atom_site_fract_x
  _atom_site_fract_y
  _atom_site_fract_z
  _atom_site_occupancy
  U   U1        1.0  0.26821  0.20164  0.63144  1.0000
  U   U2        1.0  0.73179  0.79836  0.36856  1.0000
  U   U3        1.0  0.26100  0.40672  0.89166  1.0000
  U   U4        1.0  0.73900  0.59328  0.10834  1.0000
  O   O1        1.0  0.45510  0.14120  0.57930  1.0000
  O   O2        1.0  0.54490  0.85880  0.42070  1.0000
  O   O3        1.0  0.08130  0.25730  0.68458  1.0000
  O   O4        1.0  0.91870  0.74270  0.31542  1.0000
  O   O5        1.0  0.44150  0.38690  0.93001  1.0000
  O   O6        1.0  0.55850  0.61310  0.06999  1.0000
  O   O7        1.0  0.08460  0.42910  0.84735  1.0000
  O   O8        1.0  0.91540  0.57090  0.15265  1.0000
  O   O9        1.0  0.20190  0.40170  0.51695  1.0000
  O   O10       1.0  0.79810  0.59830  0.48305  1.0000
  O   O11       1.0  0.34000  0.51220  0.40414  1.0000
  O   O12       1.0  0.66000  0.48780  0.59586  1.0000
  O   O13       1.0  0.37180  0.36400  0.65100  1.0000
  O   O14       1.0  0.62820  0.63600  0.34900  1.0000
  O   O15       1.0  0.36020  0.48230  0.74348  1.0000
  O   O16       1.0  0.63980  0.51770  0.25652  1.0000
  O   O17       1.0  0.24010  0.96770  0.66763  1.0000
  O   O18       1.0  0.75990  0.03230  0.33237  1.0000
  O   O19       1.0  0.17350  0.10050  0.53800  1.0000
  O   O20       1.0  0.82650  0.89950  0.46200  1.0000
  O   O21       1.0  0.18790  0.23760  0.00976  1.0000
  O   O22       1.0  0.81210  0.76240  0.99024  1.0000
  O   O23       1.0  0.32400  0.06790  0.11009  1.0000
  O   O24       1.0  0.67600  0.93210  0.88991  1.0000
  O   O25       1.0  0.37580  0.19380  0.86453  1.0000
  O   O26       1.0  0.62420  0.80620  0.13547  1.0000
  O   O27       1.0  0.35390  0.08980  0.77003  1.0000
  O   O28       1.0  0.64610  0.91020  0.22997  1.0000
  O   O29       1.0  0.22630  0.65710  0.85220  1.0000
  O   O30       1.0  0.77370  0.34290  0.14780  1.0000
  O   O31       1.0  0.15030  0.55720  0.98783  1.0000
  O   O32       1.0  0.84970  0.44280  0.01217  1.0000
  C   C1        1.0  0.24680  0.61660  0.51772  1.0000
  C   C2        1.0  0.75320  0.38340  0.48228  1.0000
  C   C3        1.0  0.27640  0.60780  0.60283  1.0000
  C   C4        1.0  0.72360  0.39220  0.39717  1.0000
  C   C5        1.0  0.25530  0.72830  0.62592  1.0000
  C   C6        1.0  0.74470  0.27170  0.37408  1.0000
  H   H1        1.0  0.27286  0.72280  0.68343  1.0000
  H   H2        1.0  0.72714  0.27720  0.31657  1.0000
  C   C7        1.0  0.20890  0.85700  0.56658  1.0000
  C   C8        1.0  0.79110  0.14300  0.43342  1.0000
  C   C9        1.0  0.17570  0.86570  0.48388  1.0000
  C   C10       1.0  0.82430  0.13430  0.51612  1.0000
  H   H3        1.0  0.14075  0.95310  0.44354  1.0000
  H   H4        1.0  0.85925  0.04690  0.55646  1.0000
  C   C11       1.0  0.19380  0.74640  0.46051  1.0000
  C   C12       1.0  0.80620  0.25360  0.53949  1.0000
  H   H5        1.0  0.16944  0.75321  0.40410  1.0000
  H   H6        1.0  0.83056  0.24679  0.59590  1.0000
  C   C13       1.0  0.26770  0.49940  0.47826  1.0000
  C   C14       1.0  0.73230  0.50060  0.52174  1.0000
  C   C15       1.0  0.33850  0.47600  0.66988  1.0000
  C   C16       1.0  0.66150  0.52400  0.33012  1.0000
  C   C17       1.0  0.20550  0.98230  0.59131  1.0000
  C   C18       1.0  0.79450  0.01770  0.40869  1.0000
  C   C19       1.0  0.23210  0.00220  0.00608  1.0000
  C   C20       1.0  0.76790  0.99780  0.99392  1.0000
  C   C21       1.0  0.26790  0.99800  0.91786  1.0000
  C   C22       1.0  0.73210  0.00200  0.08214  1.0000
  C   C23       1.0  0.24540  0.88810  0.89501  1.0000
  C   C24       1.0  0.75460  0.11190  0.10499  1.0000
  H   H7        1.0  0.26815  0.88525  0.83575  1.0000
  H   H8        1.0  0.73185  0.11475  0.16425  1.0000
  C   C25       1.0  0.19040  0.78310  0.95720  1.0000
  C   C26       1.0  0.80960  0.21690  0.04280  1.0000
  C   C27       1.0  0.15080  0.78980  0.04327  1.0000
  C   C28       1.0  0.84920  0.21020  0.95673  1.0000
  H   H9        1.0  0.10952  0.72030  0.08578  1.0000
  H   H10       1.0  0.89048  0.27970  0.91422  1.0000
  C   C29       1.0  0.17180  0.89850  0.06696  1.0000
  C   C30       1.0  0.82820  0.10150  0.93304  1.0000
  H   H11       1.0  0.14439  0.90227  0.12593  1.0000
  H   H12       1.0  0.85561  0.09773  0.87407  1.0000
  C   C31       1.0  0.25370  0.11040  0.04343  1.0000
  C   C32       1.0  0.74630  0.88960  0.95657  1.0000
  C   C33       1.0  0.33470  0.10110  0.84703  1.0000
  C   C34       1.0  0.66530  0.89890  0.15297  1.0000
  C   C35       1.0  0.18480  0.66140  0.93132  1.0000
  C   C36       1.0  0.81520  0.33860  0.06868  1.0000
