data_image0
_chemical_formula_structural       U4O32C12H4C8H4C4H4C12
_chemical_formula_sum              "U4 O32 C36 H12"
_cell_length_a       10.5835
_cell_length_b       13.5781
_cell_length_c       20.0217
_cell_angle_alpha    90
_cell_angle_beta     90.679
_cell_angle_gamma    90

_space_group_name_H-M_alt    "P 1"
_space_group_IT_number       1

loop_
  _space_group_symop_operation_xyz
  'x, y, z'

loop_
  _atom_site_type_symbol
  _atom_site_label
  _atom_site_symmetry_multiplicity
  _atom_site_fract_x
  _atom_site_fract_y
  _atom_site_fract_z
  _atom_site_occupancy
  U   U1        1.0  0.64923  0.63240  0.54602  1.0000
  U   U2        1.0  0.85077  0.13240  0.95398  1.0000
  U   U3        1.0  0.35077  0.36760  0.45398  1.0000
  U   U4        1.0  0.14923  0.86760  0.04602  1.0000
  O   O1        1.0  0.62694  0.65544  0.45949  1.0000
  O   O2        1.0  0.87306  0.15544  0.04051  1.0000
  O   O3        1.0  0.37306  0.34456  0.54051  1.0000
  O   O4        1.0  0.12694  0.84456  0.95949  1.0000
  O   O5        1.0  0.67435  0.60889  0.63250  1.0000
  O   O6        1.0  0.82565  0.10889  0.86750  1.0000
  O   O7        1.0  0.32565  0.39111  0.36750  1.0000
  O   O8        1.0  0.17435  0.89111  0.13250  1.0000
  O   O9        1.0  0.51471  0.76162  0.56389  1.0000
  O   O10       1.0  0.98529  0.26162  0.93611  1.0000
  O   O11       1.0  0.48529  0.23838  0.43611  1.0000
  O   O12       1.0  0.01471  0.73838  0.06389  1.0000
  O   O13       1.0  0.45060  0.80683  0.66547  1.0000
  O   O14       1.0  0.04940  0.30683  0.83453  1.0000
  O   O15       1.0  0.54940  0.19317  0.33453  1.0000
  O   O16       1.0  0.95060  0.69317  0.16547  1.0000
  O   O17       1.0  0.44552  0.56864  0.56376  1.0000
  O   O18       1.0  0.05448  0.06864  0.93624  1.0000
  O   O19       1.0  0.55448  0.43136  0.43624  1.0000
  O   O20       1.0  0.94552  0.93136  0.06376  1.0000
  O   O21       1.0  0.31251  0.53660  0.47948  1.0000
  O   O22       1.0  0.18749  0.03660  0.02052  1.0000
  O   O23       1.0  0.68749  0.46340  0.52052  1.0000
  O   O24       1.0  0.81251  0.96340  0.97948  1.0000
  O   O25       1.0  0.87340  0.61099  0.52492  1.0000
  O   O26       1.0  0.62660  0.11099  0.97508  1.0000
  O   O27       1.0  0.12660  0.38901  0.47508  1.0000
  O   O28       1.0  0.37340  0.88901  0.02492  1.0000
  O   O29       1.0  0.81809  0.75907  0.55830  1.0000
  O   O30       1.0  0.68191  0.25907  0.94170  1.0000
  O   O31       1.0  0.18191  0.24093  0.44170  1.0000
  O   O32       1.0  0.31809  0.74093  0.05830  1.0000
  C   C1        1.0  0.29530  0.74779  0.59006  1.0000
  C   C2        1.0  0.20470  0.24779  0.90994  1.0000
  C   C3        1.0  0.70470  0.25221  0.40994  1.0000
  C   C4        1.0  0.79530  0.75221  0.09006  1.0000
  C   C5        1.0  0.25740  0.66470  0.55334  1.0000
  C   C6        1.0  0.24260  0.16470  0.94666  1.0000
  C   C7        1.0  0.74260  0.33530  0.44666  1.0000
  C   C8        1.0  0.75740  0.83530  0.05334  1.0000
  C   C9        1.0  0.12900  0.64969  0.53894  1.0000
  C   C10       1.0  0.37100  0.14969  0.96106  1.0000
  C   C11       1.0  0.87100  0.35031  0.46106  1.0000
  C   C12       1.0  0.62900  0.85031  0.03894  1.0000
  H   H1        1.0  0.10299  0.59182  0.51591  1.0000
  H   H2        1.0  0.39701  0.09182  0.98409  1.0000
  H   H3        1.0  0.89701  0.40818  0.48409  1.0000
  H   H4        1.0  0.60299  0.90818  0.01591  1.0000
  C   C13       1.0  0.03930  0.71844  0.55796  1.0000
  C   C14       1.0  0.46070  0.21844  0.94204  1.0000
  C   C15       1.0  0.96070  0.28156  0.44204  1.0000
  C   C16       1.0  0.53930  0.78156  0.05796  1.0000
  C   C17       1.0  0.07760  0.80382  0.59165  1.0000
  C   C18       1.0  0.42240  0.30382  0.90835  1.0000
  C   C19       1.0  0.92240  0.19618  0.40835  1.0000
  C   C20       1.0  0.57760  0.69618  0.09165  1.0000
  H   H5        1.0  0.01745  0.85286  0.60289  1.0000
  H   H6        1.0  0.48255  0.35286  0.89711  1.0000
  H   H7        1.0  0.98255  0.14714  0.39711  1.0000
  H   H8        1.0  0.51745  0.64714  0.10289  1.0000
  C   C21       1.0  0.20390  0.81629  0.60847  1.0000
  C   C22       1.0  0.29610  0.31629  0.89153  1.0000
  C   C23       1.0  0.79610  0.18371  0.39153  1.0000
  C   C24       1.0  0.70390  0.68371  0.10847  1.0000
  H   H9        1.0  0.22888  0.87291  0.63318  1.0000
  H   H10       1.0  0.27112  0.37291  0.86682  1.0000
  H   H11       1.0  0.77112  0.12709  0.36682  1.0000
  H   H12       1.0  0.72888  0.62709  0.13318  1.0000
  C   C25       1.0  0.43060  0.77249  0.60976  1.0000
  C   C26       1.0  0.06940  0.27249  0.89024  1.0000
  C   C27       1.0  0.56940  0.22751  0.39024  1.0000
  C   C28       1.0  0.93060  0.72751  0.10976  1.0000
  C   C29       1.0  0.34590  0.58522  0.53043  1.0000
  C   C30       1.0  0.15410  0.08522  0.96957  1.0000
  C   C31       1.0  0.65410  0.41478  0.46957  1.0000
  C   C32       1.0  0.84590  0.91478  0.03043  1.0000
  C   C33       1.0  0.90300  0.69617  0.54590  1.0000
  C   C34       1.0  0.59700  0.19617  0.95410  1.0000
  C   C35       1.0  0.09700  0.30383  0.45410  1.0000
  C   C36       1.0  0.40300  0.80383  0.04590  1.0000
