data_image0
_chemical_formula_structural       U4O32C12H4C8H4C4H4C12
_chemical_formula_sum              "U4 O32 C36 H12"
_cell_length_a       12.0485
_cell_length_b       12.1138
_cell_length_c       18.097
_cell_angle_alpha    90
_cell_angle_beta     99.745
_cell_angle_gamma    90

_space_group_name_H-M_alt    "P 1"
_space_group_IT_number       1

loop_
  _space_group_symop_operation_xyz
  'x, y, z'

loop_
  _atom_site_type_symbol
  _atom_site_label
  _atom_site_symmetry_multiplicity
  _atom_site_fract_x
  _atom_site_fract_y
  _atom_site_fract_z
  _atom_site_occupancy
  U   U1        1.0  0.14915  0.89518  0.58486  1.0000
  U   U2        1.0  0.35085  0.39518  0.91514  1.0000
  U   U3        1.0  0.85085  0.10482  0.41514  1.0000
  U   U4        1.0  0.64915  0.60482  0.08486  1.0000
  O   O1        1.0  0.02008  0.89682  0.62022  1.0000
  O   O2        1.0  0.47992  0.39682  0.87978  1.0000
  O   O3        1.0  0.97992  0.10318  0.37978  1.0000
  O   O4        1.0  0.52008  0.60318  0.12022  1.0000
  O   O5        1.0  0.27808  0.89735  0.55012  1.0000
  O   O6        1.0  0.22192  0.39735  0.94988  1.0000
  O   O7        1.0  0.72192  0.10265  0.44988  1.0000
  O   O8        1.0  0.77808  0.60265  0.05012  1.0000
  O   O9        1.0  0.10210  0.71589  0.55257  1.0000
  O   O10       1.0  0.39790  0.21589  0.94743  1.0000
  O   O11       1.0  0.89790  0.28411  0.44743  1.0000
  O   O12       1.0  0.60210  0.78411  0.05257  1.0000
  O   O13       1.0  0.20190  0.60675  0.48897  1.0000
  O   O14       1.0  0.29810  0.10675  0.01103  1.0000
  O   O15       1.0  0.79810  0.39325  0.51103  1.0000
  O   O16       1.0  0.70190  0.89325  0.98897  1.0000
  O   O17       1.0  0.06036  0.89156  0.45907  1.0000
  O   O18       1.0  0.43964  0.39156  0.04093  1.0000
  O   O19       1.0  0.93964  0.10844  0.54093  1.0000
  O   O20       1.0  0.56036  0.60844  0.95907  1.0000
  O   O21       1.0  0.87410  0.91116  0.42992  1.0000
  O   O22       1.0  0.62590  0.41116  0.07008  1.0000
  O   O23       1.0  0.12590  0.08884  0.57008  1.0000
  O   O24       1.0  0.37410  0.58884  0.92992  1.0000
  O   O25       1.0  0.74646  0.51980  0.20266  1.0000
  O   O26       1.0  0.75354  0.01980  0.29734  1.0000
  O   O27       1.0  0.25354  0.48020  0.79734  1.0000
  O   O28       1.0  0.24646  0.98020  0.70266  1.0000
  O   O29       1.0  0.73584  0.70116  0.19780  1.0000
  O   O30       1.0  0.76416  0.20116  0.30220  1.0000
  O   O31       1.0  0.26416  0.29884  0.80220  1.0000
  O   O32       1.0  0.23584  0.79884  0.69780  1.0000
  C   C1        1.0  0.01758  0.65054  0.43104  1.0000
  C   C2        1.0  0.48242  0.15054  0.06896  1.0000
  C   C3        1.0  0.98242  0.34946  0.56896  1.0000
  C   C4        1.0  0.51758  0.84946  0.93104  1.0000
  C   C5        1.0  0.95079  0.74063  0.40202  1.0000
  C   C6        1.0  0.54921  0.24063  0.09798  1.0000
  C   C7        1.0  0.04921  0.25937  0.59798  1.0000
  C   C8        1.0  0.45079  0.75937  0.90202  1.0000
  C   C9        1.0  0.86933  0.72598  0.33790  1.0000
  C   C10       1.0  0.63067  0.22598  0.16210  1.0000
  C   C11       1.0  0.13067  0.27402  0.66210  1.0000
  C   C12       1.0  0.36933  0.77402  0.83790  1.0000
  H   H1        1.0  0.82579  0.78721  0.31688  1.0000
  H   H2        1.0  0.67421  0.28721  0.18312  1.0000
  H   H3        1.0  0.17421  0.21279  0.68312  1.0000
  H   H4        1.0  0.32579  0.71279  0.81688  1.0000
  C   C13       1.0  0.85146  0.62229  0.30457  1.0000
  C   C14       1.0  0.64854  0.12229  0.19543  1.0000
  C   C15       1.0  0.14854  0.37771  0.69543  1.0000
  C   C16       1.0  0.35146  0.87771  0.80457  1.0000
  C   C17       1.0  0.91053  0.53154  0.33720  1.0000
  C   C18       1.0  0.58947  0.03154  0.16280  1.0000
  C   C19       1.0  0.08947  0.46846  0.66280  1.0000
  C   C20       1.0  0.41053  0.96846  0.83720  1.0000
  H   H5        1.0  0.89371  0.45978  0.31724  1.0000
  H   H6        1.0  0.60629  0.95978  0.18276  1.0000
  H   H7        1.0  0.10629  0.54022  0.68276  1.0000
  H   H8        1.0  0.39371  0.04022  0.81724  1.0000
  C   C21       1.0  0.99456  0.54609  0.39933  1.0000
  C   C22       1.0  0.50544  0.04609  0.10067  1.0000
  C   C23       1.0  0.00544  0.45391  0.60067  1.0000
  C   C24       1.0  0.49456  0.95391  0.89933  1.0000
  H   H9        1.0  0.03686  0.48420  0.42049  1.0000
  H   H10       1.0  0.46314  0.98420  0.07951  1.0000
  H   H11       1.0  0.96314  0.51580  0.57951  1.0000
  H   H12       1.0  0.53686  0.01580  0.92049  1.0000
  C   C25       1.0  0.11612  0.65819  0.49502  1.0000
  C   C26       1.0  0.38388  0.15819  0.00498  1.0000
  C   C27       1.0  0.88388  0.34181  0.50498  1.0000
  C   C28       1.0  0.61612  0.84181  0.99502  1.0000
  C   C29       1.0  0.96320  0.85521  0.43328  1.0000
  C   C30       1.0  0.53680  0.35521  0.06672  1.0000
  C   C31       1.0  0.03680  0.14479  0.56672  1.0000
  C   C32       1.0  0.46320  0.64479  0.93328  1.0000
  C   C33       1.0  0.77311  0.61281  0.23201  1.0000
  C   C34       1.0  0.72689  0.11281  0.26799  1.0000
  C   C35       1.0  0.22689  0.38719  0.76799  1.0000
  C   C36       1.0  0.27311  0.88719  0.73201  1.0000
