data_image0
_chemical_formula_structural       Co4Cl4O24N4C12H4C4H4C8H4C4H4C12H4C4H4C8H4C4H4C12H4C4H4C8H4C4H4
_chemical_formula_sum              "Co4 Cl4 O24 N4 C84 H48"
_cell_length_a       13.5527
_cell_length_b       10.0016
_cell_length_c       23.6872
_cell_angle_alpha    90
_cell_angle_beta     94.24
_cell_angle_gamma    90

_space_group_name_H-M_alt    "P 1"
_space_group_IT_number       1

loop_
  _space_group_symop_operation_xyz
  'x, y, z'

loop_
  _atom_site_type_symbol
  _atom_site_label
  _atom_site_symmetry_multiplicity
  _atom_site_fract_x
  _atom_site_fract_y
  _atom_site_fract_z
  _atom_site_occupancy
  Co  Co1       1.0  0.91166  0.51905  0.79820  1.0000
  Co  Co2       1.0  0.58834  0.01905  0.70180  1.0000
  Co  Co3       1.0  0.08834  0.48095  0.20180  1.0000
  Co  Co4       1.0  0.41166  0.98095  0.29820  1.0000
  Cl  Cl1       1.0  0.86886  0.74171  0.79199  1.0000
  Cl  Cl2       1.0  0.63114  0.24171  0.70801  1.0000
  Cl  Cl3       1.0  0.13114  0.25829  0.20801  1.0000
  Cl  Cl4       1.0  0.36886  0.75829  0.29199  1.0000
  O   O1        1.0  0.04120  0.49960  0.84233  1.0000
  O   O2        1.0  0.45880  0.99960  0.65767  1.0000
  O   O3        1.0  0.95880  0.50040  0.15767  1.0000
  O   O4        1.0  0.54120  0.00040  0.34233  1.0000
  O   O5        1.0  0.00220  0.28440  0.83544  1.0000
  O   O6        1.0  0.49780  0.78440  0.66456  1.0000
  O   O7        1.0  0.99780  0.71560  0.16456  1.0000
  O   O8        1.0  0.50220  0.21560  0.33544  1.0000
  O   O9        1.0  0.84080  0.53070  0.91907  1.0000
  O   O10       1.0  0.65920  0.03070  0.58093  1.0000
  O   O11       1.0  0.15920  0.46930  0.08093  1.0000
  O   O12       1.0  0.34080  0.96930  0.41907  1.0000
  O   O13       1.0  0.79970  0.43690  0.83492  1.0000
  O   O14       1.0  0.70030  0.93690  0.66508  1.0000
  O   O15       1.0  0.20030  0.56310  0.16508  1.0000
  O   O16       1.0  0.29970  0.06310  0.33492  1.0000
  O   O17       1.0  0.51620  0.96070  0.20870  1.0000
  O   O18       1.0  0.98380  0.46070  0.29130  1.0000
  O   O19       1.0  0.48380  0.03930  0.79130  1.0000
  O   O20       1.0  0.01620  0.53930  0.70870  1.0000
  O   O21       1.0  0.38250  0.07600  0.22511  1.0000
  O   O22       1.0  0.11750  0.57600  0.27489  1.0000
  O   O23       1.0  0.61750  0.92400  0.77489  1.0000
  O   O24       1.0  0.88250  0.42400  0.72511  1.0000
  N   N1        1.0  0.43100  0.24820  0.96800  1.0000
  N   N2        1.0  0.06900  0.74820  0.53200  1.0000
  N   N3        1.0  0.56900  0.75180  0.03200  1.0000
  N   N4        1.0  0.93100  0.25180  0.46800  1.0000
  C   C1        1.0  0.05880  0.37630  0.85078  1.0000
  C   C2        1.0  0.44120  0.87630  0.64922  1.0000
  C   C3        1.0  0.94120  0.62370  0.14922  1.0000
  C   C4        1.0  0.55880  0.12370  0.35078  1.0000
  C   C5        1.0  0.15720  0.34170  0.88129  1.0000
  C   C6        1.0  0.34280  0.84170  0.61871  1.0000
  C   C7        1.0  0.84280  0.65830  0.11871  1.0000
  C   C8        1.0  0.65720  0.15830  0.38129  1.0000
  C   C9        1.0  0.17340  0.21580  0.90558  1.0000
  C   C10       1.0  0.32660  0.71580  0.59442  1.0000
  C   C11       1.0  0.82660  0.78420  0.09442  1.0000
  C   C12       1.0  0.67340  0.28420  0.40558  1.0000
  H   H1        1.0  0.12210  0.15090  0.90260  1.0000
  H   H2        1.0  0.37790  0.65090  0.59740  1.0000
  H   H3        1.0  0.87790  0.84910  0.09740  1.0000
  H   H4        1.0  0.62210  0.34910  0.40260  1.0000
  C   C13       1.0  0.26330  0.18440  0.93399  1.0000
  C   C14       1.0  0.23670  0.68440  0.56601  1.0000
  C   C15       1.0  0.73670  0.81560  0.06601  1.0000
  C   C16       1.0  0.76330  0.31560  0.43399  1.0000
  H   H5        1.0  0.27260  0.09930  0.95140  1.0000
  H   H6        1.0  0.22740  0.59930  0.54860  1.0000
  H   H7        1.0  0.72740  0.90070  0.04860  1.0000
  H   H8        1.0  0.77260  0.40070  0.45140  1.0000
  C   C17       1.0  0.34020  0.27730  0.93716  1.0000
  C   C18       1.0  0.15980  0.77730  0.56284  1.0000
  C   C19       1.0  0.65980  0.72270  0.06284  1.0000
  C   C20       1.0  0.84020  0.22270  0.43716  1.0000
  C   C21       1.0  0.32590  0.40020  0.91027  1.0000
  C   C22       1.0  0.17410  0.90020  0.58973  1.0000
  C   C23       1.0  0.67410  0.59980  0.08973  1.0000
  C   C24       1.0  0.82590  0.09980  0.41027  1.0000
  H   H9        1.0  0.37910  0.46200  0.91030  1.0000
  H   H10       1.0  0.12090  0.96200  0.58970  1.0000
  H   H11       1.0  0.62090  0.53800  0.08970  1.0000
  H   H12       1.0  0.87910  0.03800  0.41030  1.0000
  C   C25       1.0  0.23430  0.43370  0.88325  1.0000
  C   C26       1.0  0.26570  0.93370  0.61675  1.0000
  C   C27       1.0  0.76570  0.56630  0.11675  1.0000
  C   C28       1.0  0.73430  0.06630  0.38325  1.0000
  H   H13       1.0  0.22460  0.51910  0.86620  1.0000
  H   H14       1.0  0.27540  0.01910  0.63380  1.0000
  H   H15       1.0  0.77540  0.48090  0.13380  1.0000
  H   H16       1.0  0.72460  0.98090  0.36620  1.0000
  C   C29       1.0  0.78750  0.46270  0.88504  1.0000
  C   C30       1.0  0.71250  0.96270  0.61496  1.0000
  C   C31       1.0  0.21250  0.53730  0.11496  1.0000
  C   C32       1.0  0.28750  0.03730  0.38504  1.0000
  C   C33       1.0  0.69270  0.40350  0.90713  1.0000
  C   C34       1.0  0.80730  0.90350  0.59287  1.0000
  C   C35       1.0  0.30730  0.59650  0.09287  1.0000
  C   C36       1.0  0.19270  0.09650  0.40713  1.0000
  C   C37       1.0  0.67380  0.41840  0.96402  1.0000
  C   C38       1.0  0.82620  0.91840  0.53598  1.0000
  C   C39       1.0  0.32620  0.58160  0.03598  1.0000
  C   C40       1.0  0.17380  0.08160  0.46402  1.0000
  H   H17       1.0  0.72020  0.46380  0.98920  1.0000
  H   H18       1.0  0.77980  0.96380  0.51080  1.0000
  H   H19       1.0  0.27980  0.53620  0.01080  1.0000
  H   H20       1.0  0.22020  0.03620  0.48920  1.0000
  C   C41       1.0  0.58820  0.36770  0.98386  1.0000
  C   C42       1.0  0.91180  0.86770  0.51614  1.0000
  C   C43       1.0  0.41180  0.63230  0.01614  1.0000
  C   C44       1.0  0.08820  0.13230  0.48386  1.0000
  H   H21       1.0  0.57570  0.37960  0.02250  1.0000
  H   H22       1.0  0.92430  0.87960  0.47750  1.0000
  H   H23       1.0  0.42430  0.62040  0.97750  1.0000
  H   H24       1.0  0.07570  0.12040  0.52250  1.0000
  C   C45       1.0  0.52010  0.29940  0.94777  1.0000
  C   C46       1.0  0.97990  0.79940  0.55223  1.0000
  C   C47       1.0  0.47990  0.70060  0.05223  1.0000
  C   C48       1.0  0.02010  0.20060  0.44777  1.0000
  C   C49       1.0  0.53860  0.28210  0.89097  1.0000
  C   C50       1.0  0.96140  0.78210  0.60903  1.0000
  C   C51       1.0  0.46140  0.71790  0.10903  1.0000
  C   C52       1.0  0.03860  0.21790  0.39097  1.0000
  H   H25       1.0  0.49280  0.23460  0.86620  1.0000
  H   H26       1.0  0.00720  0.73460  0.63380  1.0000
  H   H27       1.0  0.50720  0.76540  0.13380  1.0000
  H   H28       1.0  0.99280  0.26540  0.36620  1.0000
  C   C53       1.0  0.62420  0.33460  0.87089  1.0000
  C   C54       1.0  0.87580  0.83460  0.62911  1.0000
  C   C55       1.0  0.37580  0.66540  0.12911  1.0000
  C   C56       1.0  0.12420  0.16540  0.37089  1.0000
  H   H29       1.0  0.63630  0.32370  0.83220  1.0000
  H   H30       1.0  0.86370  0.82370  0.66780  1.0000
  H   H31       1.0  0.36370  0.67630  0.16780  1.0000
  H   H32       1.0  0.13630  0.17630  0.33220  1.0000
  C   C57       1.0  0.44810  0.03750  0.19381  1.0000
  C   C58       1.0  0.05190  0.53750  0.30619  1.0000
  C   C59       1.0  0.55190  0.96250  0.80619  1.0000
  C   C60       1.0  0.94810  0.46250  0.69381  1.0000
  C   C61       1.0  0.44180  0.09290  0.13376  1.0000
  C   C62       1.0  0.05820  0.59290  0.36624  1.0000
  C   C63       1.0  0.55820  0.90710  0.86624  1.0000
  C   C64       1.0  0.94180  0.40710  0.63376  1.0000
  C   C65       1.0  0.51720  0.06690  0.09834  1.0000
  C   C66       1.0  0.98280  0.56690  0.40166  1.0000
  C   C67       1.0  0.48280  0.93310  0.90166  1.0000
  C   C68       1.0  0.01720  0.43310  0.59834  1.0000
  H   H33       1.0  0.57170  0.01290  0.11170  1.0000
  H   H34       1.0  0.92830  0.51290  0.38830  1.0000
  H   H35       1.0  0.42830  0.98710  0.88830  1.0000
  H   H36       1.0  0.07170  0.48710  0.61170  1.0000
  C   C69       1.0  0.51380  0.11840  0.04415  1.0000
  C   C70       1.0  0.98620  0.61840  0.45585  1.0000
  C   C71       1.0  0.48620  0.88160  0.95585  1.0000
  C   C72       1.0  0.01380  0.38160  0.54415  1.0000
  H   H37       1.0  0.56620  0.10090  0.02070  1.0000
  H   H38       1.0  0.93380  0.60090  0.47930  1.0000
  H   H39       1.0  0.43380  0.89910  0.97930  1.0000
  H   H40       1.0  0.06620  0.39910  0.52070  1.0000
  C   C73       1.0  0.43320  0.19650  0.02385  1.0000
  C   C74       1.0  0.06680  0.69650  0.47615  1.0000
  C   C75       1.0  0.56680  0.80350  0.97615  1.0000
  C   C76       1.0  0.93320  0.30350  0.52385  1.0000
  C   C77       1.0  0.35680  0.22210  0.05865  1.0000
  C   C78       1.0  0.14320  0.72210  0.44135  1.0000
  C   C79       1.0  0.64320  0.77790  0.94135  1.0000
  C   C80       1.0  0.85680  0.27790  0.55865  1.0000
  H   H41       1.0  0.30170  0.27480  0.04510  1.0000
  H   H42       1.0  0.19830  0.77480  0.45490  1.0000
  H   H43       1.0  0.69830  0.72520  0.95490  1.0000
  H   H44       1.0  0.80170  0.22520  0.54510  1.0000
  C   C81       1.0  0.36150  0.17060  0.11318  1.0000
  C   C82       1.0  0.13850  0.67060  0.38682  1.0000
  C   C83       1.0  0.63850  0.82940  0.88682  1.0000
  C   C84       1.0  0.86150  0.32940  0.61318  1.0000
  H   H45       1.0  0.30940  0.18840  0.13680  1.0000
  H   H46       1.0  0.19060  0.68840  0.36320  1.0000
  H   H47       1.0  0.69060  0.81160  0.86320  1.0000
  H   H48       1.0  0.80940  0.31160  0.63680  1.0000
