data_image0
_chemical_formula_structural       Zn18O108C9H9C9H9C9H9C9H9C9H9C9H9
_chemical_formula_sum              "Zn18 O108 C54 H54"
_cell_length_a       13.958
_cell_length_b       13.958
_cell_length_c       22.4646
_cell_angle_alpha    90
_cell_angle_beta     90
_cell_angle_gamma    120

_space_group_name_H-M_alt    "P 1"
_space_group_IT_number       1

loop_
  _space_group_symop_operation_xyz
  'x, y, z'

loop_
  _atom_site_type_symbol
  _atom_site_label
  _atom_site_symmetry_multiplicity
  _atom_site_fract_x
  _atom_site_fract_y
  _atom_site_fract_z
  _atom_site_occupancy
  Zn  Zn1       1.0  0.99117  0.33240  0.99962  1.0000
  Zn  Zn2       1.0  0.66760  0.65877  0.99962  1.0000
  Zn  Zn3       1.0  0.34123  0.00883  0.99962  1.0000
  Zn  Zn4       1.0  0.65784  0.66573  0.33295  1.0000
  Zn  Zn5       1.0  0.33427  0.99210  0.33295  1.0000
  Zn  Zn6       1.0  0.00790  0.34216  0.33295  1.0000
  Zn  Zn7       1.0  0.32450  0.99907  0.66629  1.0000
  Zn  Zn8       1.0  0.00093  0.32544  0.66629  1.0000
  Zn  Zn9       1.0  0.67456  0.67550  0.66629  1.0000
  Zn  Zn10      1.0  0.33330  0.66670  0.15700  1.0000
  Zn  Zn11      1.0  0.99997  0.00003  0.49033  1.0000
  Zn  Zn12      1.0  0.66663  0.33337  0.82367  1.0000
  Zn  Zn13      1.0  0.00000  0.00000  0.16540  1.0000
  Zn  Zn14      1.0  0.66667  0.33333  0.49873  1.0000
  Zn  Zn15      1.0  0.33333  0.66667  0.83207  1.0000
  Zn  Zn16      1.0  0.66670  0.33330  0.17573  1.0000
  Zn  Zn17      1.0  0.33337  0.66663  0.50906  1.0000
  Zn  Zn18      1.0  0.00003  0.99997  0.84240  1.0000
  O   O1        1.0  0.06030  0.48180  0.04660  1.0000
  O   O2        1.0  0.51820  0.57850  0.04660  1.0000
  O   O3        1.0  0.42150  0.93970  0.04660  1.0000
  O   O4        1.0  0.72697  0.81513  0.37993  1.0000
  O   O5        1.0  0.18487  0.91183  0.37993  1.0000
  O   O6        1.0  0.08817  0.27303  0.37993  1.0000
  O   O7        1.0  0.39363  0.14847  0.71327  1.0000
  O   O8        1.0  0.85153  0.24517  0.71327  1.0000
  O   O9        1.0  0.75483  0.60637  0.71327  1.0000
  O   O10       1.0  0.18850  0.60610  0.10650  1.0000
  O   O11       1.0  0.39390  0.58240  0.10650  1.0000
  O   O12       1.0  0.41760  0.81150  0.10650  1.0000
  O   O13       1.0  0.85517  0.93943  0.43983  1.0000
  O   O14       1.0  0.06057  0.91573  0.43983  1.0000
  O   O15       1.0  0.08427  0.14483  0.43983  1.0000
  O   O16       1.0  0.52183  0.27277  0.77317  1.0000
  O   O17       1.0  0.72723  0.24907  0.77317  1.0000
  O   O18       1.0  0.75093  0.47817  0.77317  1.0000
  O   O19       1.0  0.06930  0.26880  0.05440  1.0000
  O   O20       1.0  0.73120  0.80050  0.05440  1.0000
  O   O21       1.0  0.19950  0.93070  0.05440  1.0000
  O   O22       1.0  0.73597  0.60213  0.38773  1.0000
  O   O23       1.0  0.39787  0.13383  0.38773  1.0000
  O   O24       1.0  0.86617  0.26403  0.38773  1.0000
  O   O25       1.0  0.40263  0.93547  0.72107  1.0000
  O   O26       1.0  0.06453  0.46717  0.72107  1.0000
  O   O27       1.0  0.53283  0.59737  0.72107  1.0000
  O   O28       1.0  0.07510  0.14490  0.11270  1.0000
  O   O29       1.0  0.85510  0.93020  0.11270  1.0000
  O   O30       1.0  0.06980  0.92490  0.11270  1.0000
  O   O31       1.0  0.74177  0.47823  0.44603  1.0000
  O   O32       1.0  0.52177  0.26353  0.44603  1.0000
  O   O33       1.0  0.73647  0.25823  0.44603  1.0000
  O   O34       1.0  0.40843  0.81157  0.77937  1.0000
  O   O35       1.0  0.18843  0.59687  0.77937  1.0000
  O   O36       1.0  0.40313  0.59157  0.77937  1.0000
  O   O37       1.0  0.85000  0.25900  0.05520  1.0000
  O   O38       1.0  0.74100  0.59100  0.05520  1.0000
  O   O39       1.0  0.40900  0.15000  0.05520  1.0000
  O   O40       1.0  0.51667  0.59233  0.38853  1.0000
  O   O41       1.0  0.40767  0.92433  0.38853  1.0000
  O   O42       1.0  0.07567  0.48333  0.38853  1.0000
  O   O43       1.0  0.18333  0.92567  0.72187  1.0000
  O   O44       1.0  0.07433  0.25767  0.72187  1.0000
  O   O45       1.0  0.74233  0.81667  0.72187  1.0000
  O   O46       1.0  0.73700  0.26100  0.12310  1.0000
  O   O47       1.0  0.73900  0.47600  0.12310  1.0000
  O   O48       1.0  0.52400  0.26300  0.12310  1.0000
  O   O49       1.0  0.40367  0.59433  0.45643  1.0000
  O   O50       1.0  0.40567  0.80933  0.45643  1.0000
  O   O51       1.0  0.19067  0.59633  0.45643  1.0000
  O   O52       1.0  0.07033  0.92767  0.78977  1.0000
  O   O53       1.0  0.07233  0.14267  0.78977  1.0000
  O   O54       1.0  0.85733  0.92967  0.78977  1.0000
  O   O55       1.0  0.91060  0.18440  0.95190  1.0000
  O   O56       1.0  0.81560  0.72620  0.95190  1.0000
  O   O57       1.0  0.27380  0.08940  0.95190  1.0000
  O   O58       1.0  0.57727  0.51773  0.28523  1.0000
  O   O59       1.0  0.48227  0.05953  0.28523  1.0000
  O   O60       1.0  0.94047  0.42273  0.28523  1.0000
  O   O61       1.0  0.24393  0.85107  0.61857  1.0000
  O   O62       1.0  0.14893  0.39287  0.61857  1.0000
  O   O63       1.0  0.60713  0.75607  0.61857  1.0000
  O   O64       1.0  0.91420  0.05860  0.89390  1.0000
  O   O65       1.0  0.94140  0.85560  0.89390  1.0000
  O   O66       1.0  0.14440  0.08580  0.89390  1.0000
  O   O67       1.0  0.58087  0.39193  0.22723  1.0000
  O   O68       1.0  0.60807  0.18893  0.22723  1.0000
  O   O69       1.0  0.81107  0.41913  0.22723  1.0000
  O   O70       1.0  0.24753  0.72527  0.56057  1.0000
  O   O71       1.0  0.27473  0.52227  0.56057  1.0000
  O   O72       1.0  0.47773  0.75247  0.56057  1.0000
  O   O73       1.0  0.91800  0.40460  0.94680  1.0000
  O   O74       1.0  0.59540  0.51340  0.94680  1.0000
  O   O75       1.0  0.48660  0.08200  0.94680  1.0000
  O   O76       1.0  0.58467  0.73793  0.28013  1.0000
  O   O77       1.0  0.26207  0.84673  0.28013  1.0000
  O   O78       1.0  0.15327  0.41533  0.28013  1.0000
  O   O79       1.0  0.25133  0.07127  0.61347  1.0000
  O   O80       1.0  0.92873  0.18007  0.61347  1.0000
  O   O81       1.0  0.81993  0.74867  0.61347  1.0000
  O   O82       1.0  0.80840  0.40610  0.87770  1.0000
  O   O83       1.0  0.59390  0.40230  0.87770  1.0000
  O   O84       1.0  0.59770  0.19160  0.87770  1.0000
  O   O85       1.0  0.47507  0.73943  0.21103  1.0000
  O   O86       1.0  0.26057  0.73563  0.21103  1.0000
  O   O87       1.0  0.26437  0.52493  0.21103  1.0000
  O   O88       1.0  0.14173  0.07277  0.54437  1.0000
  O   O89       1.0  0.92723  0.06897  0.54437  1.0000
  O   O90       1.0  0.93103  0.85827  0.54437  1.0000
  O   O91       1.0  0.12670  0.39550  0.94130  1.0000
  O   O92       1.0  0.60450  0.73120  0.94130  1.0000
  O   O93       1.0  0.26880  0.87330  0.94130  1.0000
  O   O94       1.0  0.79337  0.72883  0.27463  1.0000
  O   O95       1.0  0.27117  0.06453  0.27463  1.0000
  O   O96       1.0  0.93547  0.20663  0.27463  1.0000
  O   O97       1.0  0.46003  0.06217  0.60797  1.0000
  O   O98       1.0  0.93783  0.39787  0.60797  1.0000
  O   O99       1.0  0.60213  0.53997  0.60797  1.0000
  O   O100      1.0  0.25860  0.52150  0.88290  1.0000
  O   O101      1.0  0.47850  0.73710  0.88290  1.0000
  O   O102      1.0  0.26290  0.74140  0.88290  1.0000
  O   O103      1.0  0.92527  0.85483  0.21623  1.0000
  O   O104      1.0  0.14517  0.07043  0.21623  1.0000
  O   O105      1.0  0.92957  0.07473  0.21623  1.0000
  O   O106      1.0  0.59193  0.18817  0.54957  1.0000
  O   O107      1.0  0.81183  0.40377  0.54957  1.0000
  O   O108      1.0  0.59623  0.40807  0.54957  1.0000
  C   C1        1.0  0.14450  0.51840  0.07780  1.0000
  C   C2        1.0  0.48160  0.62610  0.07780  1.0000
  C   C3        1.0  0.37390  0.85550  0.07780  1.0000
  C   C4        1.0  0.81117  0.85173  0.41113  1.0000
  C   C5        1.0  0.14827  0.95943  0.41113  1.0000
  C   C6        1.0  0.04057  0.18883  0.41113  1.0000
  C   C7        1.0  0.47783  0.18507  0.74447  1.0000
  C   C8        1.0  0.81493  0.29277  0.74447  1.0000
  C   C9        1.0  0.70723  0.52217  0.74447  1.0000
  H   H1        1.0  0.17850  0.47570  0.07990  1.0000
  H   H2        1.0  0.52430  0.70280  0.07990  1.0000
  H   H3        1.0  0.29720  0.82150  0.07990  1.0000
  H   H4        1.0  0.84517  0.80903  0.41323  1.0000
  H   H5        1.0  0.19097  0.03613  0.41323  1.0000
  H   H6        1.0  0.96387  0.15483  0.41323  1.0000
  H   H7        1.0  0.51183  0.14237  0.74657  1.0000
  H   H8        1.0  0.85763  0.36947  0.74657  1.0000
  H   H9        1.0  0.63053  0.48817  0.74657  1.0000
  C   C10       1.0  0.02600  0.17930  0.07910  1.0000
  C   C11       1.0  0.82070  0.84670  0.07910  1.0000
  C   C12       1.0  0.15330  0.97400  0.07910  1.0000
  C   C13       1.0  0.69267  0.51263  0.41243  1.0000
  C   C14       1.0  0.48737  0.18003  0.41243  1.0000
  C   C15       1.0  0.81997  0.30733  0.41243  1.0000
  C   C16       1.0  0.35933  0.84597  0.74577  1.0000
  C   C17       1.0  0.15403  0.51337  0.74577  1.0000
  C   C18       1.0  0.48663  0.64067  0.74577  1.0000
  H   H10       1.0  0.95070  0.13240  0.07290  1.0000
  H   H11       1.0  0.86760  0.81830  0.07290  1.0000
  H   H12       1.0  0.18170  0.04930  0.07290  1.0000
  H   H13       1.0  0.61737  0.46573  0.40623  1.0000
  H   H14       1.0  0.53427  0.15163  0.40623  1.0000
  H   H15       1.0  0.84837  0.38263  0.40623  1.0000
  H   H16       1.0  0.28403  0.79907  0.73957  1.0000
  H   H17       1.0  0.20093  0.48497  0.73957  1.0000
  H   H18       1.0  0.51503  0.71597  0.73957  1.0000
  C   C19       1.0  0.81780  0.30590  0.08950  1.0000
  C   C20       1.0  0.69410  0.51190  0.08950  1.0000
  C   C21       1.0  0.48810  0.18220  0.08950  1.0000
  C   C22       1.0  0.48447  0.63923  0.42283  1.0000
  C   C23       1.0  0.36077  0.84523  0.42283  1.0000
  C   C24       1.0  0.15477  0.51553  0.42283  1.0000
  C   C25       1.0  0.15113  0.97257  0.75617  1.0000
  C   C26       1.0  0.02743  0.17857  0.75617  1.0000
  C   C27       1.0  0.82143  0.84887  0.75617  1.0000
  H   H19       1.0  0.85840  0.38270  0.09010  1.0000
  H   H20       1.0  0.61730  0.47570  0.09010  1.0000
  H   H21       1.0  0.52430  0.14160  0.09010  1.0000
  H   H22       1.0  0.52507  0.71603  0.42343  1.0000
  H   H23       1.0  0.28397  0.80903  0.42343  1.0000
  H   H24       1.0  0.19097  0.47493  0.42343  1.0000
  H   H25       1.0  0.19173  0.04937  0.75677  1.0000
  H   H26       1.0  0.95063  0.14237  0.75677  1.0000
  H   H27       1.0  0.85763  0.80827  0.75677  1.0000
  C   C28       1.0  0.95640  0.14470  0.92260  1.0000
  C   C29       1.0  0.85530  0.81170  0.92260  1.0000
  C   C30       1.0  0.18830  0.04360  0.92260  1.0000
  C   C31       1.0  0.62307  0.47803  0.25593  1.0000
  C   C32       1.0  0.52197  0.14503  0.25593  1.0000
  C   C33       1.0  0.85497  0.37693  0.25593  1.0000
  C   C34       1.0  0.28973  0.81137  0.58927  1.0000
  C   C35       1.0  0.18863  0.47837  0.58927  1.0000
  C   C36       1.0  0.52163  0.71027  0.58927  1.0000
  H   H28       1.0  0.03330  0.18520  0.92220  1.0000
  H   H29       1.0  0.81480  0.84810  0.92220  1.0000
  H   H30       1.0  0.15190  0.96670  0.92220  1.0000
  H   H31       1.0  0.69997  0.51853  0.25553  1.0000
  H   H32       1.0  0.48147  0.18143  0.25553  1.0000
  H   H33       1.0  0.81857  0.30003  0.25553  1.0000
  H   H34       1.0  0.36663  0.85187  0.58887  1.0000
  H   H35       1.0  0.14813  0.51477  0.58887  1.0000
  H   H36       1.0  0.48523  0.63337  0.58887  1.0000
  C   C37       1.0  0.84620  0.36080  0.90840  1.0000
  C   C38       1.0  0.63920  0.48540  0.90840  1.0000
  C   C39       1.0  0.51460  0.15380  0.90840  1.0000
  C   C40       1.0  0.51287  0.69413  0.24173  1.0000
  C   C41       1.0  0.30587  0.81873  0.24173  1.0000
  C   C42       1.0  0.18127  0.48713  0.24173  1.0000
  C   C43       1.0  0.17953  0.02747  0.57507  1.0000
  C   C44       1.0  0.97253  0.15207  0.57507  1.0000
  C   C45       1.0  0.84793  0.82047  0.57507  1.0000
  H   H37       1.0  0.81790  0.28560  0.90210  1.0000
  H   H38       1.0  0.71440  0.53230  0.90210  1.0000
  H   H39       1.0  0.46770  0.18210  0.90210  1.0000
  H   H40       1.0  0.48457  0.61893  0.23543  1.0000
  H   H41       1.0  0.38107  0.86563  0.23543  1.0000
  H   H42       1.0  0.13437  0.51543  0.23543  1.0000
  H   H43       1.0  0.15123  0.95227  0.56877  1.0000
  H   H44       1.0  0.04773  0.19897  0.56877  1.0000
  H   H45       1.0  0.80103  0.84877  0.56877  1.0000
  C   C46       1.0  0.17780  0.48780  0.91920  1.0000
  C   C47       1.0  0.51220  0.69000  0.91920  1.0000
  C   C48       1.0  0.31000  0.82220  0.91920  1.0000
  C   C49       1.0  0.84447  0.82113  0.25253  1.0000
  C   C50       1.0  0.17887  0.02333  0.25253  1.0000
  C   C51       1.0  0.97667  0.15553  0.25253  1.0000
  C   C52       1.0  0.51113  0.15447  0.58587  1.0000
  C   C53       1.0  0.84553  0.35667  0.58587  1.0000
  C   C54       1.0  0.64333  0.48887  0.58587  1.0000
  H   H46       1.0  0.15570  0.53820  0.93000  1.0000
  H   H47       1.0  0.46180  0.61750  0.93000  1.0000
  H   H48       1.0  0.38250  0.84430  0.93000  1.0000
  H   H49       1.0  0.82237  0.87153  0.26333  1.0000
  H   H50       1.0  0.12847  0.95083  0.26333  1.0000
  H   H51       1.0  0.04917  0.17763  0.26333  1.0000
  H   H52       1.0  0.48903  0.20487  0.59667  1.0000
  H   H53       1.0  0.79513  0.28417  0.59667  1.0000
  H   H54       1.0  0.71583  0.51097  0.59667  1.0000
