data_image0
_chemical_formula_structural       Ca8O42C48H16C16H16C48H16C56H16C16H16C16H16C16H32
_chemical_formula_sum              "Ca8 O42 C216 H128"
_cell_length_a       13.3902
_cell_length_b       13.3902
_cell_length_c       35.51
_cell_angle_alpha    90
_cell_angle_beta     90
_cell_angle_gamma    90

_space_group_name_H-M_alt    "P 1"
_space_group_IT_number       1

loop_
  _space_group_symop_operation_xyz
  'x, y, z'

loop_
  _atom_site_type_symbol
  _atom_site_label
  _atom_site_symmetry_multiplicity
  _atom_site_fract_x
  _atom_site_fract_y
  _atom_site_fract_z
  _atom_site_occupancy
  Ca  Ca1       1.0  0.15766  0.12615  0.50000  1.0000
  Ca  Ca2       1.0  0.84234  0.87385  0.50000  1.0000
  Ca  Ca3       1.0  0.87385  0.15766  0.50000  1.0000
  Ca  Ca4       1.0  0.12615  0.84234  0.50000  1.0000
  Ca  Ca5       1.0  0.65766  0.62615  0.00000  1.0000
  Ca  Ca6       1.0  0.34234  0.37385  0.00000  1.0000
  Ca  Ca7       1.0  0.37385  0.65766  0.00000  1.0000
  Ca  Ca8       1.0  0.62615  0.34234  0.00000  1.0000
  O   O1        1.0  0.00000  0.00000  0.50000  1.0000
  O   O2        1.0  0.50000  0.50000  0.00000  1.0000
  O   O3        1.0  0.27170  0.09630  0.54990  1.0000
  O   O4        1.0  0.72830  0.90370  0.54990  1.0000
  O   O5        1.0  0.90370  0.27170  0.54990  1.0000
  O   O6        1.0  0.09630  0.72830  0.54990  1.0000
  O   O7        1.0  0.77170  0.59630  0.04990  1.0000
  O   O8        1.0  0.22830  0.40370  0.04990  1.0000
  O   O9        1.0  0.40370  0.77170  0.04990  1.0000
  O   O10       1.0  0.59630  0.22830  0.04990  1.0000
  O   O11       1.0  0.72830  0.90370  0.45010  1.0000
  O   O12       1.0  0.27170  0.09630  0.45010  1.0000
  O   O13       1.0  0.09630  0.72830  0.45010  1.0000
  O   O14       1.0  0.90370  0.27170  0.45010  1.0000
  O   O15       1.0  0.22830  0.40370  0.95010  1.0000
  O   O16       1.0  0.77170  0.59630  0.95010  1.0000
  O   O17       1.0  0.59630  0.22830  0.95010  1.0000
  O   O18       1.0  0.40370  0.77170  0.95010  1.0000
  O   O19       1.0  0.17380  0.96460  0.54217  1.0000
  O   O20       1.0  0.82620  0.03540  0.54217  1.0000
  O   O21       1.0  0.03540  0.17380  0.54217  1.0000
  O   O22       1.0  0.96460  0.82620  0.54217  1.0000
  O   O23       1.0  0.67380  0.46460  0.04217  1.0000
  O   O24       1.0  0.32620  0.53540  0.04217  1.0000
  O   O25       1.0  0.53540  0.67380  0.04217  1.0000
  O   O26       1.0  0.46460  0.32620  0.04217  1.0000
  O   O27       1.0  0.82620  0.03540  0.45783  1.0000
  O   O28       1.0  0.17380  0.96460  0.45783  1.0000
  O   O29       1.0  0.96460  0.82620  0.45783  1.0000
  O   O30       1.0  0.03540  0.17380  0.45783  1.0000
  O   O31       1.0  0.32620  0.53540  0.95783  1.0000
  O   O32       1.0  0.67380  0.46460  0.95783  1.0000
  O   O33       1.0  0.46460  0.32620  0.95783  1.0000
  O   O34       1.0  0.53540  0.67380  0.95783  1.0000
  O   O35       1.0  0.20730  0.29350  0.50000  1.0000
  O   O36       1.0  0.79270  0.70650  0.50000  1.0000
  O   O37       1.0  0.70650  0.20730  0.50000  1.0000
  O   O38       1.0  0.29350  0.79270  0.50000  1.0000
  O   O39       1.0  0.70730  0.79350  0.00000  1.0000
  O   O40       1.0  0.29270  0.20650  0.00000  1.0000
  O   O41       1.0  0.20650  0.70730  0.00000  1.0000
  O   O42       1.0  0.79350  0.29270  0.00000  1.0000
  C   C1        1.0  0.24230  0.01120  0.55965  1.0000
  C   C2        1.0  0.75770  0.98880  0.55965  1.0000
  C   C3        1.0  0.98880  0.24230  0.55965  1.0000
  C   C4        1.0  0.01120  0.75770  0.55965  1.0000
  C   C5        1.0  0.74230  0.51120  0.05965  1.0000
  C   C6        1.0  0.25770  0.48880  0.05965  1.0000
  C   C7        1.0  0.48880  0.74230  0.05965  1.0000
  C   C8        1.0  0.51120  0.25770  0.05965  1.0000
  C   C9        1.0  0.75770  0.98880  0.44035  1.0000
  C   C10       1.0  0.24230  0.01120  0.44035  1.0000
  C   C11       1.0  0.01120  0.75770  0.44035  1.0000
  C   C12       1.0  0.98880  0.24230  0.44035  1.0000
  C   C13       1.0  0.25770  0.48880  0.94035  1.0000
  C   C14       1.0  0.74230  0.51120  0.94035  1.0000
  C   C15       1.0  0.51120  0.25770  0.94035  1.0000
  C   C16       1.0  0.48880  0.74230  0.94035  1.0000
  C   C17       1.0  0.29020  0.96210  0.59314  1.0000
  C   C18       1.0  0.70980  0.03790  0.59314  1.0000
  C   C19       1.0  0.03790  0.29020  0.59314  1.0000
  C   C20       1.0  0.96210  0.70980  0.59314  1.0000
  C   C21       1.0  0.79020  0.46210  0.09314  1.0000
  C   C22       1.0  0.20980  0.53790  0.09314  1.0000
  C   C23       1.0  0.53790  0.79020  0.09314  1.0000
  C   C24       1.0  0.46210  0.20980  0.09314  1.0000
  C   C25       1.0  0.70980  0.03790  0.40686  1.0000
  C   C26       1.0  0.29020  0.96210  0.40686  1.0000
  C   C27       1.0  0.96210  0.70980  0.40686  1.0000
  C   C28       1.0  0.03790  0.29020  0.40686  1.0000
  C   C29       1.0  0.20980  0.53790  0.90686  1.0000
  C   C30       1.0  0.79020  0.46210  0.90686  1.0000
  C   C31       1.0  0.46210  0.20980  0.90686  1.0000
  C   C32       1.0  0.53790  0.79020  0.90686  1.0000
  C   C33       1.0  0.26220  0.86670  0.60411  1.0000
  C   C34       1.0  0.73780  0.13330  0.60411  1.0000
  C   C35       1.0  0.13330  0.26220  0.60411  1.0000
  C   C36       1.0  0.86670  0.73780  0.60411  1.0000
  C   C37       1.0  0.76220  0.36670  0.10411  1.0000
  C   C38       1.0  0.23780  0.63330  0.10411  1.0000
  C   C39       1.0  0.63330  0.76220  0.10411  1.0000
  C   C40       1.0  0.36670  0.23780  0.10411  1.0000
  C   C41       1.0  0.73780  0.13330  0.39589  1.0000
  C   C42       1.0  0.26220  0.86670  0.39589  1.0000
  C   C43       1.0  0.86670  0.73780  0.39589  1.0000
  C   C44       1.0  0.13330  0.26220  0.39589  1.0000
  C   C45       1.0  0.23780  0.63330  0.89589  1.0000
  C   C46       1.0  0.76220  0.36670  0.89589  1.0000
  C   C47       1.0  0.36670  0.23780  0.89589  1.0000
  C   C48       1.0  0.63330  0.76220  0.89589  1.0000
  H   H1        1.0  0.21050  0.83480  0.59140  1.0000
  H   H2        1.0  0.78950  0.16520  0.59140  1.0000
  H   H3        1.0  0.16520  0.21050  0.59140  1.0000
  H   H4        1.0  0.83480  0.78950  0.59140  1.0000
  H   H5        1.0  0.71050  0.33480  0.09140  1.0000
  H   H6        1.0  0.28950  0.66520  0.09140  1.0000
  H   H7        1.0  0.66520  0.71050  0.09140  1.0000
  H   H8        1.0  0.33480  0.28950  0.09140  1.0000
  H   H9        1.0  0.78950  0.16520  0.40860  1.0000
  H   H10       1.0  0.21050  0.83480  0.40860  1.0000
  H   H11       1.0  0.83480  0.78950  0.40860  1.0000
  H   H12       1.0  0.16520  0.21050  0.40860  1.0000
  H   H13       1.0  0.28950  0.66520  0.90860  1.0000
  H   H14       1.0  0.71050  0.33480  0.90860  1.0000
  H   H15       1.0  0.33480  0.28950  0.90860  1.0000
  H   H16       1.0  0.66520  0.71050  0.90860  1.0000
  C   C49       1.0  0.30930  0.81830  0.63336  1.0000
  C   C50       1.0  0.69070  0.18170  0.63336  1.0000
  C   C51       1.0  0.18170  0.30930  0.63336  1.0000
  C   C52       1.0  0.81830  0.69070  0.63336  1.0000
  C   C53       1.0  0.80930  0.31830  0.13336  1.0000
  C   C54       1.0  0.19070  0.68170  0.13336  1.0000
  C   C55       1.0  0.68170  0.80930  0.13336  1.0000
  C   C56       1.0  0.31830  0.19070  0.13336  1.0000
  C   C57       1.0  0.69070  0.18170  0.36664  1.0000
  C   C58       1.0  0.30930  0.81830  0.36664  1.0000
  C   C59       1.0  0.81830  0.69070  0.36664  1.0000
  C   C60       1.0  0.18170  0.30930  0.36664  1.0000
  C   C61       1.0  0.19070  0.68170  0.86664  1.0000
  C   C62       1.0  0.80930  0.31830  0.86664  1.0000
  C   C63       1.0  0.31830  0.19070  0.86664  1.0000
  C   C64       1.0  0.68170  0.80930  0.86664  1.0000
  H   H17       1.0  0.28930  0.75440  0.64040  1.0000
  H   H18       1.0  0.71070  0.24560  0.64040  1.0000
  H   H19       1.0  0.24560  0.28930  0.64040  1.0000
  H   H20       1.0  0.75440  0.71070  0.64040  1.0000
  H   H21       1.0  0.78930  0.25440  0.14040  1.0000
  H   H22       1.0  0.21070  0.74560  0.14040  1.0000
  H   H23       1.0  0.74560  0.78930  0.14040  1.0000
  H   H24       1.0  0.25440  0.21070  0.14040  1.0000
  H   H25       1.0  0.71070  0.24560  0.35960  1.0000
  H   H26       1.0  0.28930  0.75440  0.35960  1.0000
  H   H27       1.0  0.75440  0.71070  0.35960  1.0000
  H   H28       1.0  0.24560  0.28930  0.35960  1.0000
  H   H29       1.0  0.21070  0.74560  0.85960  1.0000
  H   H30       1.0  0.78930  0.25440  0.85960  1.0000
  H   H31       1.0  0.25440  0.21070  0.85960  1.0000
  H   H32       1.0  0.74560  0.78930  0.85960  1.0000
  C   C65       1.0  0.38610  0.86530  0.65200  1.0000
  C   C66       1.0  0.61390  0.13470  0.65200  1.0000
  C   C67       1.0  0.13470  0.38610  0.65200  1.0000
  C   C68       1.0  0.86530  0.61390  0.65200  1.0000
  C   C69       1.0  0.88610  0.36530  0.15200  1.0000
  C   C70       1.0  0.11390  0.63470  0.15200  1.0000
  C   C71       1.0  0.63470  0.88610  0.15200  1.0000
  C   C72       1.0  0.36530  0.11390  0.15200  1.0000
  C   C73       1.0  0.61390  0.13470  0.34800  1.0000
  C   C74       1.0  0.38610  0.86530  0.34800  1.0000
  C   C75       1.0  0.86530  0.61390  0.34800  1.0000
  C   C76       1.0  0.13470  0.38610  0.34800  1.0000
  C   C77       1.0  0.11390  0.63470  0.84800  1.0000
  C   C78       1.0  0.88610  0.36530  0.84800  1.0000
  C   C79       1.0  0.36530  0.11390  0.84800  1.0000
  C   C80       1.0  0.63470  0.88610  0.84800  1.0000
  C   C81       1.0  0.41240  0.96240  0.64182  1.0000
  C   C82       1.0  0.58760  0.03760  0.64182  1.0000
  C   C83       1.0  0.03760  0.41240  0.64182  1.0000
  C   C84       1.0  0.96240  0.58760  0.64182  1.0000
  C   C85       1.0  0.91240  0.46240  0.14182  1.0000
  C   C86       1.0  0.08760  0.53760  0.14182  1.0000
  C   C87       1.0  0.53760  0.91240  0.14182  1.0000
  C   C88       1.0  0.46240  0.08760  0.14182  1.0000
  C   C89       1.0  0.58760  0.03760  0.35818  1.0000
  C   C90       1.0  0.41240  0.96240  0.35818  1.0000
  C   C91       1.0  0.96240  0.58760  0.35818  1.0000
  C   C92       1.0  0.03760  0.41240  0.35818  1.0000
  C   C93       1.0  0.08760  0.53760  0.85818  1.0000
  C   C94       1.0  0.91240  0.46240  0.85818  1.0000
  C   C95       1.0  0.46240  0.08760  0.85818  1.0000
  C   C96       1.0  0.53760  0.91240  0.85818  1.0000
  C   C97       1.0  0.36500  0.01040  0.61271  1.0000
  C   C98       1.0  0.63500  0.98960  0.61271  1.0000
  C   C99       1.0  0.98960  0.36500  0.61271  1.0000
  C   C100      1.0  0.01040  0.63500  0.61271  1.0000
  C   C101      1.0  0.86500  0.51040  0.11271  1.0000
  C   C102      1.0  0.13500  0.48960  0.11271  1.0000
  C   C103      1.0  0.48960  0.86500  0.11271  1.0000
  C   C104      1.0  0.51040  0.13500  0.11271  1.0000
  C   C105      1.0  0.63500  0.98960  0.38729  1.0000
  C   C106      1.0  0.36500  0.01040  0.38729  1.0000
  C   C107      1.0  0.01040  0.63500  0.38729  1.0000
  C   C108      1.0  0.98960  0.36500  0.38729  1.0000
  C   C109      1.0  0.13500  0.48960  0.88729  1.0000
  C   C110      1.0  0.86500  0.51040  0.88729  1.0000
  C   C111      1.0  0.51040  0.13500  0.88729  1.0000
  C   C112      1.0  0.48960  0.86500  0.88729  1.0000
  H   H33       1.0  0.38320  0.07510  0.60620  1.0000
  H   H34       1.0  0.61680  0.92490  0.60620  1.0000
  H   H35       1.0  0.92490  0.38320  0.60620  1.0000
  H   H36       1.0  0.07510  0.61680  0.60620  1.0000
  H   H37       1.0  0.88320  0.57510  0.10620  1.0000
  H   H38       1.0  0.11680  0.42490  0.10620  1.0000
  H   H39       1.0  0.42490  0.88320  0.10620  1.0000
  H   H40       1.0  0.57510  0.11680  0.10620  1.0000
  H   H41       1.0  0.61680  0.92490  0.39380  1.0000
  H   H42       1.0  0.38320  0.07510  0.39380  1.0000
  H   H43       1.0  0.07510  0.61680  0.39380  1.0000
  H   H44       1.0  0.92490  0.38320  0.39380  1.0000
  H   H45       1.0  0.11680  0.42490  0.89380  1.0000
  H   H46       1.0  0.88320  0.57510  0.89380  1.0000
  H   H47       1.0  0.57510  0.11680  0.89380  1.0000
  H   H48       1.0  0.42490  0.88320  0.89380  1.0000
  C   C113      1.0  0.50000  0.00000  0.66529  1.0000
  C   C114      1.0  0.00000  0.50000  0.66529  1.0000
  C   C115      1.0  0.00000  0.50000  0.16529  1.0000
  C   C116      1.0  0.50000  0.00000  0.16529  1.0000
  C   C117      1.0  0.50000  0.00000  0.33471  1.0000
  C   C118      1.0  0.00000  0.50000  0.33471  1.0000
  C   C119      1.0  0.00000  0.50000  0.83471  1.0000
  C   C120      1.0  0.50000  0.00000  0.83471  1.0000
  C   C121      1.0  0.52250  0.90710  0.68863  1.0000
  C   C122      1.0  0.47750  0.09290  0.68863  1.0000
  C   C123      1.0  0.09290  0.52250  0.68863  1.0000
  C   C124      1.0  0.90710  0.47750  0.68863  1.0000
  C   C125      1.0  0.02250  0.40710  0.18863  1.0000
  C   C126      1.0  0.97750  0.59290  0.18863  1.0000
  C   C127      1.0  0.59290  0.02250  0.18863  1.0000
  C   C128      1.0  0.40710  0.97750  0.18863  1.0000
  C   C129      1.0  0.47750  0.09290  0.31137  1.0000
  C   C130      1.0  0.52250  0.90710  0.31137  1.0000
  C   C131      1.0  0.90710  0.47750  0.31137  1.0000
  C   C132      1.0  0.09290  0.52250  0.31137  1.0000
  C   C133      1.0  0.97750  0.59290  0.81137  1.0000
  C   C134      1.0  0.02250  0.40710  0.81137  1.0000
  C   C135      1.0  0.40710  0.97750  0.81137  1.0000
  C   C136      1.0  0.59290  0.02250  0.81137  1.0000
  C   C137      1.0  0.45560  0.83080  0.68143  1.0000
  C   C138      1.0  0.54440  0.16920  0.68143  1.0000
  C   C139      1.0  0.16920  0.45560  0.68143  1.0000
  C   C140      1.0  0.83080  0.54440  0.68143  1.0000
  C   C141      1.0  0.95560  0.33080  0.18143  1.0000
  C   C142      1.0  0.04440  0.66920  0.18143  1.0000
  C   C143      1.0  0.66920  0.95560  0.18143  1.0000
  C   C144      1.0  0.33080  0.04440  0.18143  1.0000
  C   C145      1.0  0.54440  0.16920  0.31857  1.0000
  C   C146      1.0  0.45560  0.83080  0.31857  1.0000
  C   C147      1.0  0.83080  0.54440  0.31857  1.0000
  C   C148      1.0  0.16920  0.45560  0.31857  1.0000
  C   C149      1.0  0.04440  0.66920  0.81857  1.0000
  C   C150      1.0  0.95560  0.33080  0.81857  1.0000
  C   C151      1.0  0.33080  0.04440  0.81857  1.0000
  C   C152      1.0  0.66920  0.95560  0.81857  1.0000
  C   C153      1.0  0.46260  0.74010  0.69942  1.0000
  C   C154      1.0  0.53740  0.25990  0.69942  1.0000
  C   C155      1.0  0.25990  0.46260  0.69942  1.0000
  C   C156      1.0  0.74010  0.53740  0.69942  1.0000
  C   C157      1.0  0.96260  0.24010  0.19942  1.0000
  C   C158      1.0  0.03740  0.75990  0.19942  1.0000
  C   C159      1.0  0.75990  0.96260  0.19942  1.0000
  C   C160      1.0  0.24010  0.03740  0.19942  1.0000
  C   C161      1.0  0.53740  0.25990  0.30058  1.0000
  C   C162      1.0  0.46260  0.74010  0.30058  1.0000
  C   C163      1.0  0.74010  0.53740  0.30058  1.0000
  C   C164      1.0  0.25990  0.46260  0.30058  1.0000
  C   C165      1.0  0.03740  0.75990  0.80058  1.0000
  C   C166      1.0  0.96260  0.24010  0.80058  1.0000
  C   C167      1.0  0.24010  0.03740  0.80058  1.0000
  C   C168      1.0  0.75990  0.96260  0.80058  1.0000
  H   H49       1.0  0.41690  0.68950  0.69440  1.0000
  H   H50       1.0  0.58310  0.31050  0.69440  1.0000
  H   H51       1.0  0.31050  0.41690  0.69440  1.0000
  H   H52       1.0  0.68950  0.58310  0.69440  1.0000
  H   H53       1.0  0.91690  0.18950  0.19440  1.0000
  H   H54       1.0  0.08310  0.81050  0.19440  1.0000
  H   H55       1.0  0.81050  0.91690  0.19440  1.0000
  H   H56       1.0  0.18950  0.08310  0.19440  1.0000
  H   H57       1.0  0.58310  0.31050  0.30560  1.0000
  H   H58       1.0  0.41690  0.68950  0.30560  1.0000
  H   H59       1.0  0.68950  0.58310  0.30560  1.0000
  H   H60       1.0  0.31050  0.41690  0.30560  1.0000
  H   H61       1.0  0.08310  0.81050  0.80560  1.0000
  H   H62       1.0  0.91690  0.18950  0.80560  1.0000
  H   H63       1.0  0.18950  0.08310  0.80560  1.0000
  H   H64       1.0  0.81050  0.91690  0.80560  1.0000
  C   C169      1.0  0.53850  0.72570  0.72489  1.0000
  C   C170      1.0  0.46150  0.27430  0.72489  1.0000
  C   C171      1.0  0.27430  0.53850  0.72489  1.0000
  C   C172      1.0  0.72570  0.46150  0.72489  1.0000
  C   C173      1.0  0.03850  0.22570  0.22489  1.0000
  C   C174      1.0  0.96150  0.77430  0.22489  1.0000
  C   C175      1.0  0.77430  0.03850  0.22489  1.0000
  C   C176      1.0  0.22570  0.96150  0.22489  1.0000
  C   C177      1.0  0.46150  0.27430  0.27511  1.0000
  C   C178      1.0  0.53850  0.72570  0.27511  1.0000
  C   C179      1.0  0.72570  0.46150  0.27511  1.0000
  C   C180      1.0  0.27430  0.53850  0.27511  1.0000
  C   C181      1.0  0.96150  0.77430  0.77511  1.0000
  C   C182      1.0  0.03850  0.22570  0.77511  1.0000
  C   C183      1.0  0.22570  0.96150  0.77511  1.0000
  C   C184      1.0  0.77430  0.03850  0.77511  1.0000
  H   H65       1.0  0.54400  0.66480  0.73730  1.0000
  H   H66       1.0  0.45600  0.33520  0.73730  1.0000
  H   H67       1.0  0.33520  0.54400  0.73730  1.0000
  H   H68       1.0  0.66480  0.45600  0.73730  1.0000
  H   H69       1.0  0.04400  0.16480  0.23730  1.0000
  H   H70       1.0  0.95600  0.83520  0.23730  1.0000
  H   H71       1.0  0.83520  0.04400  0.23730  1.0000
  H   H72       1.0  0.16480  0.95600  0.23730  1.0000
  H   H73       1.0  0.45600  0.33520  0.26270  1.0000
  H   H74       1.0  0.54400  0.66480  0.26270  1.0000
  H   H75       1.0  0.66480  0.45600  0.26270  1.0000
  H   H76       1.0  0.33520  0.54400  0.26270  1.0000
  H   H77       1.0  0.95600  0.83520  0.76270  1.0000
  H   H78       1.0  0.04400  0.16480  0.76270  1.0000
  H   H79       1.0  0.16480  0.95600  0.76270  1.0000
  H   H80       1.0  0.83520  0.04400  0.76270  1.0000
  C   C185      1.0  0.60720  0.80100  0.73243  1.0000
  C   C186      1.0  0.39280  0.19900  0.73243  1.0000
  C   C187      1.0  0.19900  0.60720  0.73243  1.0000
  C   C188      1.0  0.80100  0.39280  0.73243  1.0000
  C   C189      1.0  0.10720  0.30100  0.23243  1.0000
  C   C190      1.0  0.89280  0.69900  0.23243  1.0000
  C   C191      1.0  0.69900  0.10720  0.23243  1.0000
  C   C192      1.0  0.30100  0.89280  0.23243  1.0000
  C   C193      1.0  0.39280  0.19900  0.26757  1.0000
  C   C194      1.0  0.60720  0.80100  0.26757  1.0000
  C   C195      1.0  0.80100  0.39280  0.26757  1.0000
  C   C196      1.0  0.19900  0.60720  0.26757  1.0000
  C   C197      1.0  0.89280  0.69900  0.76757  1.0000
  C   C198      1.0  0.10720  0.30100  0.76757  1.0000
  C   C199      1.0  0.30100  0.89280  0.76757  1.0000
  C   C200      1.0  0.69900  0.10720  0.76757  1.0000
  H   H81       1.0  0.65850  0.79000  0.74960  1.0000
  H   H82       1.0  0.34150  0.21000  0.74960  1.0000
  H   H83       1.0  0.21000  0.65850  0.74960  1.0000
  H   H84       1.0  0.79000  0.34150  0.74960  1.0000
  H   H85       1.0  0.15850  0.29000  0.24960  1.0000
  H   H86       1.0  0.84150  0.71000  0.24960  1.0000
  H   H87       1.0  0.71000  0.15850  0.24960  1.0000
  H   H88       1.0  0.29000  0.84150  0.24960  1.0000
  H   H89       1.0  0.34150  0.21000  0.25040  1.0000
  H   H90       1.0  0.65850  0.79000  0.25040  1.0000
  H   H91       1.0  0.79000  0.34150  0.25040  1.0000
  H   H92       1.0  0.21000  0.65850  0.25040  1.0000
  H   H93       1.0  0.84150  0.71000  0.75040  1.0000
  H   H94       1.0  0.15850  0.29000  0.75040  1.0000
  H   H95       1.0  0.29000  0.84150  0.75040  1.0000
  H   H96       1.0  0.71000  0.15850  0.75040  1.0000
  C   C201      1.0  0.59950  0.89230  0.71438  1.0000
  C   C202      1.0  0.40050  0.10770  0.71438  1.0000
  C   C203      1.0  0.10770  0.59950  0.71438  1.0000
  C   C204      1.0  0.89230  0.40050  0.71438  1.0000
  C   C205      1.0  0.09950  0.39230  0.21438  1.0000
  C   C206      1.0  0.90050  0.60770  0.21438  1.0000
  C   C207      1.0  0.60770  0.09950  0.21438  1.0000
  C   C208      1.0  0.39230  0.90050  0.21438  1.0000
  C   C209      1.0  0.40050  0.10770  0.28562  1.0000
  C   C210      1.0  0.59950  0.89230  0.28562  1.0000
  C   C211      1.0  0.89230  0.40050  0.28562  1.0000
  C   C212      1.0  0.10770  0.59950  0.28562  1.0000
  C   C213      1.0  0.90050  0.60770  0.78562  1.0000
  C   C214      1.0  0.09950  0.39230  0.78562  1.0000
  C   C215      1.0  0.39230  0.90050  0.78562  1.0000
  C   C216      1.0  0.60770  0.09950  0.78562  1.0000
  H   H97       1.0  0.64500  0.94310  0.71940  1.0000
  H   H98       1.0  0.35500  0.05690  0.71940  1.0000
  H   H99       1.0  0.05690  0.64500  0.71940  1.0000
  H   H100      1.0  0.94310  0.35500  0.71940  1.0000
  H   H101      1.0  0.14500  0.44310  0.21940  1.0000
  H   H102      1.0  0.85500  0.55690  0.21940  1.0000
  H   H103      1.0  0.55690  0.14500  0.21940  1.0000
  H   H104      1.0  0.44310  0.85500  0.21940  1.0000
  H   H105      1.0  0.35500  0.05690  0.28060  1.0000
  H   H106      1.0  0.64500  0.94310  0.28060  1.0000
  H   H107      1.0  0.94310  0.35500  0.28060  1.0000
  H   H108      1.0  0.05690  0.64500  0.28060  1.0000
  H   H109      1.0  0.85500  0.55690  0.78060  1.0000
  H   H110      1.0  0.14500  0.44310  0.78060  1.0000
  H   H111      1.0  0.44310  0.85500  0.78060  1.0000
  H   H112      1.0  0.55690  0.14500  0.78060  1.0000
  H   H113      1.0  0.22800  0.34800  0.51840  1.0000
  H   H114      1.0  0.77200  0.65200  0.51840  1.0000
  H   H115      1.0  0.65200  0.22800  0.51840  1.0000
  H   H116      1.0  0.34800  0.77200  0.51840  1.0000
  H   H117      1.0  0.72800  0.84800  0.01840  1.0000
  H   H118      1.0  0.27200  0.15200  0.01840  1.0000
  H   H119      1.0  0.15200  0.72800  0.01840  1.0000
  H   H120      1.0  0.84800  0.27200  0.01840  1.0000
  H   H121      1.0  0.77200  0.65200  0.48160  1.0000
  H   H122      1.0  0.22800  0.34800  0.48160  1.0000
  H   H123      1.0  0.34800  0.77200  0.48160  1.0000
  H   H124      1.0  0.65200  0.22800  0.48160  1.0000
  H   H125      1.0  0.27200  0.15200  0.98160  1.0000
  H   H126      1.0  0.72800  0.84800  0.98160  1.0000
  H   H127      1.0  0.84800  0.27200  0.98160  1.0000
  H   H128      1.0  0.15200  0.72800  0.98160  1.0000
