data_image0
_chemical_formula_structural       Mn2O12C6H6
_chemical_formula_sum              "Mn2 O12 C6 H6"
_cell_length_a       6.741
_cell_length_b       8.486
_cell_length_c       7.44
_cell_angle_alpha    90
_cell_angle_beta     116.87
_cell_angle_gamma    90

_space_group_name_H-M_alt    "P 1"
_space_group_IT_number       1

loop_
  _space_group_symop_operation_xyz
  'x, y, z'

loop_
  _atom_site_type_symbol
  _atom_site_label
  _atom_site_symmetry_multiplicity
  _atom_site_fract_x
  _atom_site_fract_y
  _atom_site_fract_z
  _atom_site_occupancy
  Mn  Mn1       1.0  0.66220  0.25000  0.32421  1.0000
  Mn  Mn2       1.0  0.33780  0.75000  0.67579  1.0000
  O   O1        1.0  0.88060  0.10180  0.57200  1.0000
  O   O2        1.0  0.11940  0.60180  0.42800  1.0000
  O   O3        1.0  0.62440  0.61080  0.70780  1.0000
  O   O4        1.0  0.37560  0.11080  0.29220  1.0000
  O   O5        1.0  0.29770  0.60130  0.89630  1.0000
  O   O6        1.0  0.70230  0.10130  0.10370  1.0000
  O   O7        1.0  0.08280  0.88670  0.70560  1.0000
  O   O8        1.0  0.91720  0.38670  0.29440  1.0000
  O   O9        1.0  0.69030  0.39750  0.57200  1.0000
  O   O10       1.0  0.30970  0.89750  0.42800  1.0000
  O   O11       1.0  0.40130  0.39660  0.10280  1.0000
  O   O12       1.0  0.59870  0.89660  0.89720  1.0000
  C   C1        1.0  0.94350  0.96700  0.56660  1.0000
  C   C2        1.0  0.05650  0.46700  0.43340  1.0000
  C   C3        1.0  0.61760  0.53260  0.56250  1.0000
  C   C4        1.0  0.38240  0.03260  0.43750  1.0000
  C   C5        1.0  0.43170  0.49840  0.99840  1.0000
  C   C6        1.0  0.56830  0.99840  0.00160  1.0000
  H   H1        1.0  0.87550  0.91679  0.43700  1.0000
  H   H2        1.0  0.12450  0.41679  0.56300  1.0000
  H   H3        1.0  0.54983  0.58171  0.43222  1.0000
  H   H4        1.0  0.45017  0.08171  0.56778  1.0000
  H   H5        1.0  0.57314  0.49752  0.99647  1.0000
  H   H6        1.0  0.42686  0.99752  0.00353  1.0000
