data_image0
_chemical_formula_structural       Mn2O12C6H6
_chemical_formula_sum              "Mn2 O12 C6 H6"
_cell_length_a       6.64
_cell_length_b       8.4889
_cell_length_c       7.422
_cell_angle_alpha    90
_cell_angle_beta     116.45
_cell_angle_gamma    90

_space_group_name_H-M_alt    "P 1"
_space_group_IT_number       1

loop_
  _space_group_symop_operation_xyz
  'x, y, z'

loop_
  _atom_site_type_symbol
  _atom_site_label
  _atom_site_symmetry_multiplicity
  _atom_site_fract_x
  _atom_site_fract_y
  _atom_site_fract_z
  _atom_site_occupancy
  Mn  Mn1       1.0  0.66200  0.25000  0.32432  1.0000
  Mn  Mn2       1.0  0.33800  0.75000  0.67568  1.0000
  O   O1        1.0  0.87740  0.10130  0.57150  1.0000
  O   O2        1.0  0.12260  0.60130  0.42850  1.0000
  O   O3        1.0  0.63230  0.61330  0.70970  1.0000
  O   O4        1.0  0.36770  0.11330  0.29030  1.0000
  O   O5        1.0  0.29670  0.59960  0.89720  1.0000
  O   O6        1.0  0.70330  0.09960  0.10280  1.0000
  O   O7        1.0  0.07660  0.88280  0.70610  1.0000
  O   O8        1.0  0.92340  0.38280  0.29390  1.0000
  O   O9        1.0  0.69040  0.39680  0.57100  1.0000
  O   O10       1.0  0.30960  0.89680  0.42900  1.0000
  O   O11       1.0  0.40170  0.39760  0.10360  1.0000
  O   O12       1.0  0.59830  0.89760  0.89640  1.0000
  C   C1        1.0  0.94060  0.96640  0.57000  1.0000
  C   C2        1.0  0.05940  0.46640  0.43000  1.0000
  C   C3        1.0  0.62410  0.53360  0.56400  1.0000
  C   C4        1.0  0.37590  0.03360  0.43600  1.0000
  C   C5        1.0  0.43500  0.49950  0.00010  1.0000
  C   C6        1.0  0.56500  0.99950  0.99990  1.0000
  H   H1        1.0  0.87271  0.91657  0.44034  1.0000
  H   H2        1.0  0.12729  0.41657  0.55966  1.0000
  H   H3        1.0  0.56015  0.58395  0.43467  1.0000
  H   H4        1.0  0.43985  0.08395  0.56533  1.0000
  H   H5        1.0  0.57958  0.50063  0.00004  1.0000
  H   H6        1.0  0.42042  0.00063  0.99996  1.0000
