data_image0
_chemical_formula_structural       Mn2O12C6H6
_chemical_formula_sum              "Mn2 O12 C6 H6"
_cell_length_a       7.32804
_cell_length_b       7.32804
_cell_length_c       8.4964
_cell_angle_alpha    90
_cell_angle_beta     90
_cell_angle_gamma    120

_space_group_name_H-M_alt    "P 1"
_space_group_IT_number       1

loop_
  _space_group_symop_operation_xyz
  'x, y, z'

loop_
  _atom_site_type_symbol
  _atom_site_label
  _atom_site_symmetry_multiplicity
  _atom_site_fract_x
  _atom_site_fract_y
  _atom_site_fract_z
  _atom_site_occupancy
  Mn  Mn1       1.0  0.33333  0.66667  0.25000  1.0000
  Mn  Mn2       1.0  0.66667  0.33333  0.75000  1.0000
  O   O1        1.0  0.59220  0.89450  0.10390  1.0000
  O   O2        1.0  0.10550  0.69770  0.10390  1.0000
  O   O3        1.0  0.30230  0.40780  0.10390  1.0000
  O   O4        1.0  0.40780  0.10550  0.60390  1.0000
  O   O5        1.0  0.89450  0.30230  0.60390  1.0000
  O   O6        1.0  0.69770  0.59220  0.60390  1.0000
  O   O7        1.0  0.89450  0.59220  0.89610  1.0000
  O   O8        1.0  0.69770  0.10550  0.89610  1.0000
  O   O9        1.0  0.40780  0.30230  0.89610  1.0000
  O   O10       1.0  0.10550  0.40780  0.39610  1.0000
  O   O11       1.0  0.30230  0.89450  0.39610  1.0000
  O   O12       1.0  0.59220  0.69770  0.39610  1.0000
  C   C1        1.0  0.57030  0.00000  0.00000  1.0000
  C   C2        1.0  0.00000  0.57030  0.00000  1.0000
  C   C3        1.0  0.42970  0.42970  0.00000  1.0000
  C   C4        1.0  0.42970  0.00000  0.50000  1.0000
  C   C5        1.0  0.00000  0.42970  0.50000  1.0000
  C   C6        1.0  0.57030  0.57030  0.50000  1.0000
  H   H1        1.0  0.44343  0.00000  0.00000  1.0000
  H   H2        1.0  0.00000  0.44343  0.00000  1.0000
  H   H3        1.0  0.55657  0.55657  0.00000  1.0000
  H   H4        1.0  0.55657  0.00000  0.50000  1.0000
  H   H5        1.0  0.00000  0.55657  0.50000  1.0000
  H   H6        1.0  0.44343  0.44343  0.50000  1.0000
