data_image0
_chemical_formula_structural       Ni2O12C6H6
_chemical_formula_sum              "Ni2 O12 C6 H6"
_cell_length_a       6.306
_cell_length_b       8.0599
_cell_length_c       7.25
_cell_angle_alpha    90
_cell_angle_beta     115.6
_cell_angle_gamma    90

_space_group_name_H-M_alt    "P 1"
_space_group_IT_number       1

loop_
  _space_group_symop_operation_xyz
  'x, y, z'

loop_
  _atom_site_type_symbol
  _atom_site_label
  _atom_site_symmetry_multiplicity
  _atom_site_fract_x
  _atom_site_fract_y
  _atom_site_fract_z
  _atom_site_occupancy
  Ni  Ni1       1.0  0.65980  0.75000  0.31900  1.0000
  Ni  Ni2       1.0  0.34020  0.25000  0.68100  1.0000
  O   O1        1.0  0.92100  0.61690  0.29400  1.0000
  O   O2        1.0  0.07900  0.11690  0.70600  1.0000
  O   O3        1.0  0.67900  0.61170  0.55500  1.0000
  O   O4        1.0  0.32100  0.11170  0.44500  1.0000
  O   O5        1.0  0.40900  0.60800  0.10900  1.0000
  O   O6        1.0  0.59100  0.10800  0.89100  1.0000
  O   O7        1.0  0.11600  0.38730  0.44200  1.0000
  O   O8        1.0  0.88400  0.88730  0.55800  1.0000
  O   O9        1.0  0.61900  0.38430  0.70800  1.0000
  O   O10       1.0  0.38100  0.88430  0.29200  1.0000
  O   O11       1.0  0.30400  0.39670  0.89200  1.0000
  O   O12       1.0  0.69600  0.89670  0.10800  1.0000
  C   C1        1.0  0.06400  0.53750  0.43900  1.0000
  C   C2        1.0  0.93600  0.03750  0.56100  1.0000
  C   C3        1.0  0.61300  0.46480  0.54400  1.0000
  C   C4        1.0  0.38700  0.96480  0.45600  1.0000
  C   C5        1.0  0.44900  0.51000  0.00200  1.0000
  C   C6        1.0  0.55100  0.01000  0.99800  1.0000
  H   H1        1.0  0.14615  0.59770  0.56437  1.0000
  H   H2        1.0  0.85385  0.09770  0.43563  1.0000
  H   H3        1.0  0.55601  0.40813  0.41487  1.0000
  H   H4        1.0  0.44399  0.90813  0.58513  1.0000
  H   H5        1.0  0.59952  0.51636  0.99813  1.0000
  H   H6        1.0  0.40048  0.01636  0.00187  1.0000
