data_image0
_chemical_formula_structural       Ni2O12C6H6
_chemical_formula_sum              "Ni2 O12 C6 H6"
_cell_length_a       7.2789
_cell_length_b       7.2789
_cell_length_c       8.0555
_cell_angle_alpha    90
_cell_angle_beta     90
_cell_angle_gamma    120

_space_group_name_H-M_alt    "P 1"
_space_group_IT_number       1

loop_
  _space_group_symop_operation_xyz
  'x, y, z'

loop_
  _atom_site_type_symbol
  _atom_site_label
  _atom_site_symmetry_multiplicity
  _atom_site_fract_x
  _atom_site_fract_y
  _atom_site_fract_z
  _atom_site_occupancy
  Ni  Ni1       1.0  0.33333  0.66667  0.25000  1.0000
  Ni  Ni2       1.0  0.66667  0.33333  0.75000  1.0000
  O   O1        1.0  0.30920  0.88870  0.10600  1.0000
  O   O2        1.0  0.11130  0.42050  0.10600  1.0000
  O   O3        1.0  0.57950  0.69080  0.10600  1.0000
  O   O4        1.0  0.69080  0.11130  0.60600  1.0000
  O   O5        1.0  0.88870  0.57950  0.60600  1.0000
  O   O6        1.0  0.42050  0.30920  0.60600  1.0000
  O   O7        1.0  0.88870  0.30920  0.89400  1.0000
  O   O8        1.0  0.42050  0.11130  0.89400  1.0000
  O   O9        1.0  0.69080  0.57950  0.89400  1.0000
  O   O10       1.0  0.11130  0.69080  0.39400  1.0000
  O   O11       1.0  0.57950  0.88870  0.39400  1.0000
  O   O12       1.0  0.30920  0.42050  0.39400  1.0000
  C   C1        1.0  0.44130  0.00000  0.00000  1.0000
  C   C2        1.0  0.00000  0.44130  0.00000  1.0000
  C   C3        1.0  0.55870  0.55870  0.00000  1.0000
  C   C4        1.0  0.55870  0.00000  0.50000  1.0000
  C   C5        1.0  0.00000  0.55870  0.50000  1.0000
  C   C6        1.0  0.44130  0.44130  0.50000  1.0000
  H   H1        1.0  0.56904  0.00000  0.00000  1.0000
  H   H2        1.0  0.00000  0.56904  0.00000  1.0000
  H   H3        1.0  0.43096  0.43096  0.00000  1.0000
  H   H4        1.0  0.43096  0.00000  0.50000  1.0000
  H   H5        1.0  0.00000  0.43096  0.50000  1.0000
  H   H6        1.0  0.56904  0.56904  0.50000  1.0000
