data_image0
_chemical_formula_structural       Ni2O4C2O4C2O4C2H6
_chemical_formula_sum              "Ni2 O12 C6 H6"
_cell_length_a       6.607
_cell_length_b       8.0559
_cell_length_c       7.27
_cell_angle_alpha    90
_cell_angle_beta     116.96
_cell_angle_gamma    90

_space_group_name_H-M_alt    "P 1"
_space_group_IT_number       1

loop_
  _space_group_symop_operation_xyz
  'x, y, z'

loop_
  _atom_site_type_symbol
  _atom_site_label
  _atom_site_symmetry_multiplicity
  _atom_site_fract_x
  _atom_site_fract_y
  _atom_site_fract_z
  _atom_site_occupancy
  Ni  Ni1       1.0  0.66060  0.25370  0.32059  1.0000
  Ni  Ni2       1.0  0.33940  0.75370  0.67941  1.0000
  O   O1        1.0  0.40650  0.39670  0.10600  1.0000
  O   O2        1.0  0.59350  0.89670  0.89400  1.0000
  O   O3        1.0  0.67850  0.39140  0.56010  1.0000
  O   O4        1.0  0.32150  0.89140  0.43990  1.0000
  C   C1        1.0  0.95800  0.97670  0.55080  1.0000
  C   C2        1.0  0.04200  0.47670  0.44920  1.0000
  O   O5        1.0  0.30220  0.60940  0.89370  1.0000
  O   O6        1.0  0.69780  0.10940  0.10630  1.0000
  O   O7        1.0  0.60790  0.61100  0.70340  1.0000
  O   O8        1.0  0.39210  0.11100  0.29660  1.0000
  C   C3        1.0  0.59000  0.53050  0.54900  1.0000
  C   C4        1.0  0.41000  0.03050  0.45100  1.0000
  O   O9        1.0  0.88330  0.11510  0.55890  1.0000
  O   O10       1.0  0.11670  0.61510  0.44110  1.0000
  O   O11       1.0  0.09740  0.89310  0.70650  1.0000
  O   O12       1.0  0.90260  0.39310  0.29350  1.0000
  C   C5        1.0  0.45200  0.49840  0.99800  1.0000
  C   C6        1.0  0.54800  0.99840  0.00200  1.0000
  H   H1        1.0  0.59457  0.49360  0.99401  1.0000
  H   H2        1.0  0.40543  0.99360  0.00599  1.0000
  H   H3        1.0  0.50386  0.57856  0.41487  1.0000
  H   H4        1.0  0.49614  0.07856  0.58513  1.0000
  H   H5        1.0  0.90864  0.92770  0.41680  1.0000
  H   H6        1.0  0.09136  0.42770  0.58320  1.0000
