data_image0
_chemical_formula_structural       Ni2O4C2O4C2O4C2H6
_chemical_formula_sum              "Ni2 O12 C6 H6"
_cell_length_a       6.47
_cell_length_b       8.0553
_cell_length_c       7.263
_cell_angle_alpha    90
_cell_angle_beta     116.33
_cell_angle_gamma    90

_space_group_name_H-M_alt    "P 1"
_space_group_IT_number       1

loop_
  _space_group_symop_operation_xyz
  'x, y, z'

loop_
  _atom_site_type_symbol
  _atom_site_label
  _atom_site_symmetry_multiplicity
  _atom_site_fract_x
  _atom_site_fract_y
  _atom_site_fract_z
  _atom_site_occupancy
  Ni  Ni1       1.0  0.66080  0.25350  0.31932  1.0000
  Ni  Ni2       1.0  0.33920  0.75350  0.68068  1.0000
  O   O1        1.0  0.40630  0.39820  0.10810  1.0000
  O   O2        1.0  0.59370  0.89820  0.89190  1.0000
  O   O3        1.0  0.67780  0.39450  0.55680  1.0000
  O   O4        1.0  0.32220  0.89450  0.44320  1.0000
  C   C1        1.0  0.95300  0.97260  0.55240  1.0000
  C   C2        1.0  0.04700  0.47260  0.44760  1.0000
  O   O5        1.0  0.30240  0.61040  0.89360  1.0000
  O   O6        1.0  0.69760  0.11040  0.10640  1.0000
  O   O7        1.0  0.61410  0.61370  0.70560  1.0000
  O   O8        1.0  0.38590  0.11370  0.29440  1.0000
  C   C3        1.0  0.59600  0.53500  0.54810  1.0000
  C   C4        1.0  0.40400  0.03500  0.45190  1.0000
  O   O9        1.0  0.88170  0.11250  0.55750  1.0000
  O   O10       1.0  0.11830  0.61250  0.44250  1.0000
  O   O11       1.0  0.09020  0.89310  0.71110  1.0000
  O   O12       1.0  0.90980  0.39310  0.28890  1.0000
  C   C5        1.0  0.45100  0.50160  0.99400  1.0000
  C   C6        1.0  0.54900  0.00160  0.00600  1.0000
  H   H1        1.0  0.59437  0.49568  0.98498  1.0000
  H   H2        1.0  0.40563  0.99568  0.01502  1.0000
  H   H3        1.0  0.51539  0.58664  0.41602  1.0000
  H   H4        1.0  0.48461  0.08664  0.58398  1.0000
  H   H5        1.0  0.90265  0.91983  0.42095  1.0000
  H   H6        1.0  0.09735  0.41983  0.57905  1.0000
