data_image0
_chemical_formula_structural       Eu8O88N8C24H8C16H8C16H8C16H16C8H16C8H16C16H8C16H8C16H8C32H24C8H24C8H24
_chemical_formula_sum              "Eu8 O88 N8 C184 H168"
_cell_length_a       22.78
_cell_length_b       20.276
_cell_length_c       12.298
_cell_angle_alpha    90
_cell_angle_beta     110.936
_cell_angle_gamma    90

_space_group_name_H-M_alt    "P 1"
_space_group_IT_number       1

loop_
  _space_group_symop_operation_xyz
  'x, y, z'

loop_
  _atom_site_type_symbol
  _atom_site_label
  _atom_site_symmetry_multiplicity
  _atom_site_fract_x
  _atom_site_fract_y
  _atom_site_fract_z
  _atom_site_occupancy
  Eu  Eu1       1.0  0.17684  0.21988  0.06720  1.0000
  Eu  Eu2       1.0  0.82316  0.21988  0.43280  1.0000
  Eu  Eu3       1.0  0.67684  0.71988  0.06720  1.0000
  Eu  Eu4       1.0  0.32316  0.71988  0.43280  1.0000
  Eu  Eu5       1.0  0.82316  0.78012  0.93280  1.0000
  Eu  Eu6       1.0  0.17684  0.78012  0.56720  1.0000
  Eu  Eu7       1.0  0.32316  0.28012  0.93280  1.0000
  Eu  Eu8       1.0  0.67684  0.28012  0.56720  1.0000
  O   O1        1.0  0.14750  0.25740  0.87180  1.0000
  O   O2        1.0  0.85250  0.25740  0.62820  1.0000
  O   O3        1.0  0.64750  0.75740  0.87180  1.0000
  O   O4        1.0  0.35250  0.75740  0.62820  1.0000
  O   O5        1.0  0.85250  0.74260  0.12820  1.0000
  O   O6        1.0  0.14750  0.74260  0.37180  1.0000
  O   O7        1.0  0.35250  0.24260  0.12820  1.0000
  O   O8        1.0  0.64750  0.24260  0.37180  1.0000
  O   O9        1.0  0.21900  0.31370  0.82560  1.0000
  O   O10       1.0  0.78100  0.31370  0.67440  1.0000
  O   O11       1.0  0.71900  0.81370  0.82560  1.0000
  O   O12       1.0  0.28100  0.81370  0.67440  1.0000
  O   O13       1.0  0.78100  0.68630  0.17440  1.0000
  O   O14       1.0  0.21900  0.68630  0.32560  1.0000
  O   O15       1.0  0.28100  0.18630  0.17440  1.0000
  O   O16       1.0  0.71900  0.18630  0.32560  1.0000
  O   O17       1.0  0.94250  0.21780  0.52670  1.0000
  O   O18       1.0  0.05750  0.21780  0.97330  1.0000
  O   O19       1.0  0.44250  0.71780  0.52670  1.0000
  O   O20       1.0  0.55750  0.71780  0.97330  1.0000
  O   O21       1.0  0.05750  0.78220  0.47330  1.0000
  O   O22       1.0  0.94250  0.78220  0.02670  1.0000
  O   O23       1.0  0.55750  0.28220  0.47330  1.0000
  O   O24       1.0  0.44250  0.28220  0.02670  1.0000
  O   O25       1.0  0.89970  0.31080  0.44630  1.0000
  O   O26       1.0  0.10030  0.31080  0.05370  1.0000
  O   O27       1.0  0.39970  0.81080  0.44630  1.0000
  O   O28       1.0  0.60030  0.81080  0.05370  1.0000
  O   O29       1.0  0.10030  0.68920  0.55370  1.0000
  O   O30       1.0  0.89970  0.68920  0.94630  1.0000
  O   O31       1.0  0.60030  0.18920  0.55370  1.0000
  O   O32       1.0  0.39970  0.18920  0.94630  1.0000
  O   O33       1.0  0.09340  0.45720  0.50670  1.0000
  O   O34       1.0  0.90660  0.45720  0.99330  1.0000
  O   O35       1.0  0.59340  0.95720  0.50670  1.0000
  O   O36       1.0  0.40660  0.95720  0.99330  1.0000
  O   O37       1.0  0.90660  0.54280  0.49330  1.0000
  O   O38       1.0  0.09340  0.54280  0.00670  1.0000
  O   O39       1.0  0.40660  0.04280  0.49330  1.0000
  O   O40       1.0  0.59340  0.04280  0.00670  1.0000
  O   O41       1.0  0.15500  0.48630  0.29730  1.0000
  O   O42       1.0  0.84500  0.48630  0.20270  1.0000
  O   O43       1.0  0.65500  0.98630  0.29730  1.0000
  O   O44       1.0  0.34500  0.98630  0.20270  1.0000
  O   O45       1.0  0.84500  0.51370  0.70270  1.0000
  O   O46       1.0  0.15500  0.51370  0.79730  1.0000
  O   O47       1.0  0.34500  0.01370  0.70270  1.0000
  O   O48       1.0  0.65500  0.01370  0.79730  1.0000
  O   O49       1.0  0.23390  0.31710  0.08560  1.0000
  O   O50       1.0  0.76610  0.31710  0.41440  1.0000
  O   O51       1.0  0.73390  0.81710  0.08560  1.0000
  O   O52       1.0  0.26610  0.81710  0.41440  1.0000
  O   O53       1.0  0.76610  0.68290  0.91440  1.0000
  O   O54       1.0  0.23390  0.68290  0.58560  1.0000
  O   O55       1.0  0.26610  0.18290  0.91440  1.0000
  O   O56       1.0  0.73390  0.18290  0.58560  1.0000
  O   O57       1.0  0.30980  0.37000  0.04850  1.0000
  O   O58       1.0  0.69020  0.37000  0.45150  1.0000
  O   O59       1.0  0.80980  0.87000  0.04850  1.0000
  O   O60       1.0  0.19020  0.87000  0.45150  1.0000
  O   O61       1.0  0.69020  0.63000  0.95150  1.0000
  O   O62       1.0  0.30980  0.63000  0.54850  1.0000
  O   O63       1.0  0.19020  0.13000  0.95150  1.0000
  O   O64       1.0  0.80980  0.13000  0.54850  1.0000
  O   O65       1.0  0.41610  0.55200  0.31640  1.0000
  O   O66       1.0  0.58390  0.55200  0.18360  1.0000
  O   O67       1.0  0.91610  0.05200  0.31640  1.0000
  O   O68       1.0  0.08390  0.05200  0.18360  1.0000
  O   O69       1.0  0.58390  0.44800  0.68360  1.0000
  O   O70       1.0  0.41610  0.44800  0.81640  1.0000
  O   O71       1.0  0.08390  0.94800  0.68360  1.0000
  O   O72       1.0  0.91610  0.94800  0.81640  1.0000
  O   O73       1.0  0.35420  0.62310  0.35880  1.0000
  O   O74       1.0  0.64580  0.62310  0.14120  1.0000
  O   O75       1.0  0.85420  0.12310  0.35880  1.0000
  O   O76       1.0  0.14580  0.12310  0.14120  1.0000
  O   O77       1.0  0.64580  0.37690  0.64120  1.0000
  O   O78       1.0  0.35420  0.37690  0.85880  1.0000
  O   O79       1.0  0.14580  0.87690  0.64120  1.0000
  O   O80       1.0  0.85420  0.87690  0.85880  1.0000
  O   O81       1.0  0.18790  0.24880  0.26360  1.0000
  O   O82       1.0  0.81210  0.24880  0.23640  1.0000
  O   O83       1.0  0.68790  0.74880  0.26360  1.0000
  O   O84       1.0  0.31210  0.74880  0.23640  1.0000
  O   O85       1.0  0.81210  0.75120  0.73640  1.0000
  O   O86       1.0  0.18790  0.75120  0.76360  1.0000
  O   O87       1.0  0.31210  0.25120  0.73640  1.0000
  O   O88       1.0  0.68790  0.25120  0.76360  1.0000
  N   N1        1.0  0.24010  0.31990  0.41310  1.0000
  N   N2        1.0  0.75990  0.31990  0.08690  1.0000
  N   N3        1.0  0.74010  0.81990  0.41310  1.0000
  N   N4        1.0  0.25990  0.81990  0.08690  1.0000
  N   N5        1.0  0.75990  0.68010  0.58690  1.0000
  N   N6        1.0  0.24010  0.68010  0.91310  1.0000
  N   N7        1.0  0.25990  0.18010  0.58690  1.0000
  N   N8        1.0  0.74010  0.18010  0.91310  1.0000
  C   C1        1.0  0.16420  0.29460  0.80740  1.0000
  C   C2        1.0  0.83580  0.29460  0.69260  1.0000
  C   C3        1.0  0.66420  0.79460  0.80740  1.0000
  C   C4        1.0  0.33580  0.79460  0.69260  1.0000
  C   C5        1.0  0.83580  0.70540  0.19260  1.0000
  C   C6        1.0  0.16420  0.70540  0.30740  1.0000
  C   C7        1.0  0.33580  0.20540  0.19260  1.0000
  C   C8        1.0  0.66420  0.20540  0.30740  1.0000
  C   C9        1.0  0.11330  0.31860  0.69860  1.0000
  C   C10       1.0  0.88670  0.31860  0.80140  1.0000
  C   C11       1.0  0.61330  0.81860  0.69860  1.0000
  C   C12       1.0  0.38670  0.81860  0.80140  1.0000
  C   C13       1.0  0.88670  0.68140  0.30140  1.0000
  C   C14       1.0  0.11330  0.68140  0.19860  1.0000
  C   C15       1.0  0.38670  0.18140  0.30140  1.0000
  C   C16       1.0  0.61330  0.18140  0.19860  1.0000
  C   C17       1.0  0.05510  0.28740  0.65550  1.0000
  C   C18       1.0  0.94490  0.28740  0.84450  1.0000
  C   C19       1.0  0.55510  0.78740  0.65550  1.0000
  C   C20       1.0  0.44490  0.78740  0.84450  1.0000
  C   C21       1.0  0.94490  0.71260  0.34450  1.0000
  C   C22       1.0  0.05510  0.71260  0.15550  1.0000
  C   C23       1.0  0.44490  0.21260  0.34450  1.0000
  C   C24       1.0  0.55510  0.21260  0.15550  1.0000
  H   H1        1.0  0.04700  0.24960  0.69370  1.0000
  H   H2        1.0  0.95300  0.24960  0.80630  1.0000
  H   H3        1.0  0.54700  0.74960  0.69370  1.0000
  H   H4        1.0  0.45300  0.74960  0.80630  1.0000
  H   H5        1.0  0.95300  0.75040  0.30630  1.0000
  H   H6        1.0  0.04700  0.75040  0.19370  1.0000
  H   H7        1.0  0.45300  0.25040  0.30630  1.0000
  H   H8        1.0  0.54700  0.25040  0.19370  1.0000
  C   C25       1.0  0.00870  0.31210  0.55560  1.0000
  C   C26       1.0  0.99130  0.31210  0.94440  1.0000
  C   C27       1.0  0.50870  0.81210  0.55560  1.0000
  C   C28       1.0  0.49130  0.81210  0.94440  1.0000
  C   C29       1.0  0.99130  0.68790  0.44440  1.0000
  C   C30       1.0  0.00870  0.68790  0.05560  1.0000
  C   C31       1.0  0.49130  0.18790  0.44440  1.0000
  C   C32       1.0  0.50870  0.18790  0.05560  1.0000
  C   C33       1.0  0.01930  0.36980  0.50260  1.0000
  C   C34       1.0  0.98070  0.36980  0.99740  1.0000
  C   C35       1.0  0.51930  0.86980  0.50260  1.0000
  C   C36       1.0  0.48070  0.86980  0.99740  1.0000
  C   C37       1.0  0.98070  0.63020  0.49740  1.0000
  C   C38       1.0  0.01930  0.63020  0.00260  1.0000
  C   C39       1.0  0.48070  0.13020  0.49740  1.0000
  C   C40       1.0  0.51930  0.13020  0.00260  1.0000
  H   H9        1.0  0.98710  0.38750  0.43640  1.0000
  H   H10       1.0  0.01290  0.38750  0.06360  1.0000
  H   H11       1.0  0.48710  0.88750  0.43640  1.0000
  H   H12       1.0  0.51290  0.88750  0.06360  1.0000
  H   H13       1.0  0.01290  0.61250  0.56360  1.0000
  H   H14       1.0  0.98710  0.61250  0.93640  1.0000
  H   H15       1.0  0.51290  0.11250  0.56360  1.0000
  H   H16       1.0  0.48710  0.11250  0.93640  1.0000
  C   C41       1.0  0.07720  0.40080  0.54790  1.0000
  C   C42       1.0  0.92280  0.40080  0.95210  1.0000
  C   C43       1.0  0.57720  0.90080  0.54790  1.0000
  C   C44       1.0  0.42280  0.90080  0.95210  1.0000
  C   C45       1.0  0.92280  0.59920  0.45210  1.0000
  C   C46       1.0  0.07720  0.59920  0.04790  1.0000
  C   C47       1.0  0.42280  0.09920  0.45210  1.0000
  C   C48       1.0  0.57720  0.09920  0.04790  1.0000
  C   C49       1.0  0.12450  0.37430  0.64350  1.0000
  C   C50       1.0  0.87550  0.37430  0.85650  1.0000
  C   C51       1.0  0.62450  0.87430  0.64350  1.0000
  C   C52       1.0  0.37550  0.87430  0.85650  1.0000
  C   C53       1.0  0.87550  0.62570  0.35650  1.0000
  C   C54       1.0  0.12450  0.62570  0.14350  1.0000
  C   C55       1.0  0.37550  0.12570  0.35650  1.0000
  C   C56       1.0  0.62450  0.12570  0.14350  1.0000
  H   H17       1.0  0.16470  0.39450  0.67150  1.0000
  H   H18       1.0  0.83530  0.39450  0.82850  1.0000
  H   H19       1.0  0.66470  0.89450  0.67150  1.0000
  H   H20       1.0  0.33530  0.89450  0.82850  1.0000
  H   H21       1.0  0.83530  0.60550  0.32850  1.0000
  H   H22       1.0  0.16470  0.60550  0.17150  1.0000
  H   H23       1.0  0.33530  0.10550  0.32850  1.0000
  H   H24       1.0  0.66470  0.10550  0.17150  1.0000
  C   C57       1.0  0.94690  0.27850  0.50740  1.0000
  C   C58       1.0  0.05310  0.27850  0.99260  1.0000
  C   C59       1.0  0.44690  0.77850  0.50740  1.0000
  C   C60       1.0  0.55310  0.77850  0.99260  1.0000
  C   C61       1.0  0.05310  0.72150  0.49260  1.0000
  C   C62       1.0  0.94690  0.72150  0.00740  1.0000
  C   C63       1.0  0.55310  0.22150  0.49260  1.0000
  C   C64       1.0  0.44690  0.22150  0.00740  1.0000
  C   C65       1.0  0.05420  0.48170  0.39530  1.0000
  C   C66       1.0  0.94580  0.48170  0.10470  1.0000
  C   C67       1.0  0.55420  0.98170  0.39530  1.0000
  C   C68       1.0  0.44580  0.98170  0.10470  1.0000
  C   C69       1.0  0.94580  0.51830  0.60470  1.0000
  C   C70       1.0  0.05420  0.51830  0.89530  1.0000
  C   C71       1.0  0.44580  0.01830  0.60470  1.0000
  C   C72       1.0  0.55420  0.01830  0.89530  1.0000
  H   H25       1.0  0.01190  0.49270  0.39550  1.0000
  H   H26       1.0  0.98810  0.49270  0.10450  1.0000
  H   H27       1.0  0.51190  0.99270  0.39550  1.0000
  H   H28       1.0  0.48810  0.99270  0.10450  1.0000
  H   H29       1.0  0.98810  0.50730  0.60450  1.0000
  H   H30       1.0  0.01190  0.50730  0.89550  1.0000
  H   H31       1.0  0.48810  0.00730  0.60450  1.0000
  H   H32       1.0  0.51190  0.00730  0.89550  1.0000
  H   H33       1.0  0.04970  0.44830  0.33410  1.0000
  H   H34       1.0  0.95030  0.44830  0.16590  1.0000
  H   H35       1.0  0.54970  0.94830  0.33410  1.0000
  H   H36       1.0  0.45030  0.94830  0.16590  1.0000
  H   H37       1.0  0.95030  0.55170  0.66590  1.0000
  H   H38       1.0  0.04970  0.55170  0.83410  1.0000
  H   H39       1.0  0.45030  0.05170  0.66590  1.0000
  H   H40       1.0  0.54970  0.05170  0.83410  1.0000
  C   C73       1.0  0.08600  0.54240  0.37330  1.0000
  C   C74       1.0  0.91400  0.54240  0.12670  1.0000
  C   C75       1.0  0.58600  0.04240  0.37330  1.0000
  C   C76       1.0  0.41400  0.04240  0.12670  1.0000
  C   C77       1.0  0.91400  0.45760  0.62670  1.0000
  C   C78       1.0  0.08600  0.45760  0.87330  1.0000
  C   C79       1.0  0.41400  0.95760  0.62670  1.0000
  C   C80       1.0  0.58600  0.95760  0.87330  1.0000
  H   H41       1.0  0.06170  0.55870  0.29400  1.0000
  H   H42       1.0  0.93830  0.55870  0.20600  1.0000
  H   H43       1.0  0.56170  0.05870  0.29400  1.0000
  H   H44       1.0  0.43830  0.05870  0.20600  1.0000
  H   H45       1.0  0.93830  0.44130  0.70600  1.0000
  H   H46       1.0  0.06170  0.44130  0.79400  1.0000
  H   H47       1.0  0.43830  0.94130  0.70600  1.0000
  H   H48       1.0  0.56170  0.94130  0.79400  1.0000
  H   H49       1.0  0.08440  0.57700  0.42900  1.0000
  H   H50       1.0  0.91560  0.57700  0.07100  1.0000
  H   H51       1.0  0.58440  0.07700  0.42900  1.0000
  H   H52       1.0  0.41560  0.07700  0.07100  1.0000
  H   H53       1.0  0.91560  0.42300  0.57100  1.0000
  H   H54       1.0  0.08440  0.42300  0.92900  1.0000
  H   H55       1.0  0.41560  0.92300  0.57100  1.0000
  H   H56       1.0  0.58440  0.92300  0.92900  1.0000
  C   C81       1.0  0.15320  0.53350  0.38350  1.0000
  C   C82       1.0  0.84680  0.53350  0.11650  1.0000
  C   C83       1.0  0.65320  0.03350  0.38350  1.0000
  C   C84       1.0  0.34680  0.03350  0.11650  1.0000
  C   C85       1.0  0.84680  0.46650  0.61650  1.0000
  C   C86       1.0  0.15320  0.46650  0.88350  1.0000
  C   C87       1.0  0.34680  0.96650  0.61650  1.0000
  C   C88       1.0  0.65320  0.96650  0.88350  1.0000
  H   H57       1.0  0.17090  0.57620  0.37050  1.0000
  H   H58       1.0  0.82910  0.57620  0.12950  1.0000
  H   H59       1.0  0.67090  0.07620  0.37050  1.0000
  H   H60       1.0  0.32910  0.07620  0.12950  1.0000
  H   H61       1.0  0.82910  0.42380  0.62950  1.0000
  H   H62       1.0  0.17090  0.42380  0.87050  1.0000
  H   H63       1.0  0.32910  0.92380  0.62950  1.0000
  H   H64       1.0  0.67090  0.92380  0.87050  1.0000
  H   H65       1.0  0.17860  0.51750  0.46230  1.0000
  H   H66       1.0  0.82140  0.51750  0.03770  1.0000
  H   H67       1.0  0.67860  0.01750  0.46230  1.0000
  H   H68       1.0  0.32140  0.01750  0.03770  1.0000
  H   H69       1.0  0.82140  0.48250  0.53770  1.0000
  H   H70       1.0  0.17860  0.48250  0.96230  1.0000
  H   H71       1.0  0.32140  0.98250  0.53770  1.0000
  H   H72       1.0  0.67860  0.98250  0.96230  1.0000
  C   C89       1.0  0.20950  0.48110  0.27370  1.0000
  C   C90       1.0  0.79050  0.48110  0.22630  1.0000
  C   C91       1.0  0.70950  0.98110  0.27370  1.0000
  C   C92       1.0  0.29050  0.98110  0.22630  1.0000
  C   C93       1.0  0.79050  0.51890  0.72630  1.0000
  C   C94       1.0  0.20950  0.51890  0.77370  1.0000
  C   C95       1.0  0.29050  0.01890  0.72630  1.0000
  C   C96       1.0  0.70950  0.01890  0.77370  1.0000
  C   C97       1.0  0.21280  0.42960  0.20240  1.0000
  C   C98       1.0  0.78720  0.42960  0.29760  1.0000
  C   C99       1.0  0.71280  0.92960  0.20240  1.0000
  C   C100      1.0  0.28720  0.92960  0.29760  1.0000
  C   C101      1.0  0.78720  0.57040  0.79760  1.0000
  C   C102      1.0  0.21280  0.57040  0.70240  1.0000
  C   C103      1.0  0.28720  0.07040  0.79760  1.0000
  C   C104      1.0  0.71280  0.07040  0.70240  1.0000
  H   H73       1.0  0.17890  0.39930  0.17480  1.0000
  H   H74       1.0  0.82110  0.39930  0.32520  1.0000
  H   H75       1.0  0.67890  0.89930  0.17480  1.0000
  H   H76       1.0  0.32110  0.89930  0.32520  1.0000
  H   H77       1.0  0.82110  0.60070  0.82520  1.0000
  H   H78       1.0  0.17890  0.60070  0.67480  1.0000
  H   H79       1.0  0.32110  0.10070  0.82520  1.0000
  H   H80       1.0  0.67890  0.10070  0.67480  1.0000
  C   C105      1.0  0.26440  0.42200  0.17100  1.0000
  C   C106      1.0  0.73560  0.42200  0.32900  1.0000
  C   C107      1.0  0.76440  0.92200  0.17100  1.0000
  C   C108      1.0  0.23560  0.92200  0.32900  1.0000
  C   C109      1.0  0.73560  0.57800  0.82900  1.0000
  C   C110      1.0  0.26440  0.57800  0.67100  1.0000
  C   C111      1.0  0.23560  0.07800  0.82900  1.0000
  C   C112      1.0  0.76440  0.07800  0.67100  1.0000
  C   C113      1.0  0.31330  0.46740  0.20940  1.0000
  C   C114      1.0  0.68670  0.46740  0.29060  1.0000
  C   C115      1.0  0.81330  0.96740  0.20940  1.0000
  C   C116      1.0  0.18670  0.96740  0.29060  1.0000
  C   C117      1.0  0.68670  0.53260  0.79060  1.0000
  C   C118      1.0  0.31330  0.53260  0.70940  1.0000
  C   C119      1.0  0.18670  0.03260  0.79060  1.0000
  C   C120      1.0  0.81330  0.03260  0.70940  1.0000
  H   H81       1.0  0.34850  0.46330  0.18560  1.0000
  H   H82       1.0  0.65150  0.46330  0.31440  1.0000
  H   H83       1.0  0.84850  0.96330  0.18560  1.0000
  H   H84       1.0  0.15150  0.96330  0.31440  1.0000
  H   H85       1.0  0.65150  0.53670  0.81440  1.0000
  H   H86       1.0  0.34850  0.53670  0.68560  1.0000
  H   H87       1.0  0.15150  0.03670  0.81440  1.0000
  H   H88       1.0  0.84850  0.03670  0.68560  1.0000
  C   C121      1.0  0.31080  0.51910  0.28250  1.0000
  C   C122      1.0  0.68920  0.51910  0.21750  1.0000
  C   C123      1.0  0.81080  0.01910  0.28250  1.0000
  C   C124      1.0  0.18920  0.01910  0.21750  1.0000
  C   C125      1.0  0.68920  0.48090  0.71750  1.0000
  C   C126      1.0  0.31080  0.48090  0.78250  1.0000
  C   C127      1.0  0.18920  0.98090  0.71750  1.0000
  C   C128      1.0  0.81080  0.98090  0.78250  1.0000
  C   C129      1.0  0.25920  0.52620  0.31520  1.0000
  C   C130      1.0  0.74080  0.52620  0.18480  1.0000
  C   C131      1.0  0.75920  0.02620  0.31520  1.0000
  C   C132      1.0  0.24080  0.02620  0.18480  1.0000
  C   C133      1.0  0.74080  0.47380  0.68480  1.0000
  C   C134      1.0  0.25920  0.47380  0.81520  1.0000
  C   C135      1.0  0.24080  0.97380  0.68480  1.0000
  C   C136      1.0  0.75920  0.97380  0.81520  1.0000
  H   H89       1.0  0.25730  0.56120  0.36510  1.0000
  H   H90       1.0  0.74270  0.56120  0.13490  1.0000
  H   H91       1.0  0.75730  0.06120  0.36510  1.0000
  H   H92       1.0  0.24270  0.06120  0.13490  1.0000
  H   H93       1.0  0.74270  0.43880  0.63490  1.0000
  H   H94       1.0  0.25730  0.43880  0.86510  1.0000
  H   H95       1.0  0.24270  0.93880  0.63490  1.0000
  H   H96       1.0  0.75730  0.93880  0.86510  1.0000
  C   C137      1.0  0.36340  0.56880  0.32170  1.0000
  C   C138      1.0  0.63660  0.56880  0.17830  1.0000
  C   C139      1.0  0.86340  0.06880  0.32170  1.0000
  C   C140      1.0  0.13660  0.06880  0.17830  1.0000
  C   C141      1.0  0.63660  0.43120  0.67830  1.0000
  C   C142      1.0  0.36340  0.43120  0.82170  1.0000
  C   C143      1.0  0.13660  0.93120  0.67830  1.0000
  C   C144      1.0  0.86340  0.93120  0.82170  1.0000
  C   C145      1.0  0.26950  0.36550  0.09650  1.0000
  C   C146      1.0  0.73050  0.36550  0.40350  1.0000
  C   C147      1.0  0.76950  0.86550  0.09650  1.0000
  C   C148      1.0  0.23050  0.86550  0.40350  1.0000
  C   C149      1.0  0.73050  0.63450  0.90350  1.0000
  C   C150      1.0  0.26950  0.63450  0.59650  1.0000
  C   C151      1.0  0.23050  0.13450  0.90350  1.0000
  C   C152      1.0  0.76950  0.13450  0.59650  1.0000
  C   C153      1.0  0.18680  0.29400  0.33300  1.0000
  C   C154      1.0  0.81320  0.29400  0.16700  1.0000
  C   C155      1.0  0.68680  0.79400  0.33300  1.0000
  C   C156      1.0  0.31320  0.79400  0.16700  1.0000
  C   C157      1.0  0.81320  0.70600  0.66700  1.0000
  C   C158      1.0  0.18680  0.70600  0.83300  1.0000
  C   C159      1.0  0.31320  0.20600  0.66700  1.0000
  C   C160      1.0  0.68680  0.20600  0.83300  1.0000
  C   C161      1.0  0.12390  0.31470  0.33500  1.0000
  C   C162      1.0  0.87610  0.31470  0.16500  1.0000
  C   C163      1.0  0.62390  0.81470  0.33500  1.0000
  C   C164      1.0  0.37610  0.81470  0.16500  1.0000
  C   C165      1.0  0.87610  0.68530  0.66500  1.0000
  C   C166      1.0  0.12390  0.68530  0.83500  1.0000
  C   C167      1.0  0.37610  0.18530  0.66500  1.0000
  C   C168      1.0  0.62390  0.18530  0.83500  1.0000
  H   H97       1.0  0.12970  0.35000  0.39240  1.0000
  H   H98       1.0  0.87030  0.35000  0.10760  1.0000
  H   H99       1.0  0.62970  0.85000  0.39240  1.0000
  H   H100      1.0  0.37030  0.85000  0.10760  1.0000
  H   H101      1.0  0.87030  0.65000  0.60760  1.0000
  H   H102      1.0  0.12970  0.65000  0.89240  1.0000
  H   H103      1.0  0.37030  0.15000  0.60760  1.0000
  H   H104      1.0  0.62970  0.15000  0.89240  1.0000
  H   H105      1.0  0.09760  0.33080  0.25780  1.0000
  H   H106      1.0  0.90240  0.33080  0.24220  1.0000
  H   H107      1.0  0.59760  0.83080  0.25780  1.0000
  H   H108      1.0  0.40240  0.83080  0.24220  1.0000
  H   H109      1.0  0.90240  0.66920  0.74220  1.0000
  H   H110      1.0  0.09760  0.66920  0.75780  1.0000
  H   H111      1.0  0.40240  0.16920  0.74220  1.0000
  H   H112      1.0  0.59760  0.16920  0.75780  1.0000
  H   H113      1.0  0.10340  0.27690  0.35610  1.0000
  H   H114      1.0  0.89660  0.27690  0.14390  1.0000
  H   H115      1.0  0.60340  0.77690  0.35610  1.0000
  H   H116      1.0  0.39660  0.77690  0.14390  1.0000
  H   H117      1.0  0.89660  0.72310  0.64390  1.0000
  H   H118      1.0  0.10340  0.72310  0.85610  1.0000
  H   H119      1.0  0.39660  0.22310  0.64390  1.0000
  H   H120      1.0  0.60340  0.22310  0.85610  1.0000
  C   C169      1.0  0.24340  0.36900  0.50540  1.0000
  C   C170      1.0  0.75660  0.36900  0.99460  1.0000
  C   C171      1.0  0.74340  0.86900  0.50540  1.0000
  C   C172      1.0  0.25660  0.86900  0.99460  1.0000
  C   C173      1.0  0.75660  0.63100  0.49460  1.0000
  C   C174      1.0  0.24340  0.63100  0.00540  1.0000
  C   C175      1.0  0.25660  0.13100  0.49460  1.0000
  C   C176      1.0  0.74340  0.13100  0.00540  1.0000
  H   H121      1.0  0.28750  0.37900  0.55070  1.0000
  H   H122      1.0  0.71250  0.37900  0.94930  1.0000
  H   H123      1.0  0.78750  0.87900  0.55070  1.0000
  H   H124      1.0  0.21250  0.87900  0.94930  1.0000
  H   H125      1.0  0.71250  0.62100  0.44930  1.0000
  H   H126      1.0  0.28750  0.62100  0.05070  1.0000
  H   H127      1.0  0.21250  0.12100  0.44930  1.0000
  H   H128      1.0  0.78750  0.12100  0.05070  1.0000
  H   H129      1.0  0.22170  0.40950  0.46910  1.0000
  H   H130      1.0  0.77830  0.40950  0.03090  1.0000
  H   H131      1.0  0.72170  0.90950  0.46910  1.0000
  H   H132      1.0  0.27830  0.90950  0.03090  1.0000
  H   H133      1.0  0.77830  0.59050  0.53090  1.0000
  H   H134      1.0  0.22170  0.59050  0.96910  1.0000
  H   H135      1.0  0.27830  0.09050  0.53090  1.0000
  H   H136      1.0  0.72170  0.09050  0.96910  1.0000
  H   H137      1.0  0.22320  0.35070  0.55700  1.0000
  H   H138      1.0  0.77680  0.35070  0.94300  1.0000
  H   H139      1.0  0.72320  0.85070  0.55700  1.0000
  H   H140      1.0  0.27680  0.85070  0.94300  1.0000
  H   H141      1.0  0.77680  0.64930  0.44300  1.0000
  H   H142      1.0  0.22320  0.64930  0.05700  1.0000
  H   H143      1.0  0.27680  0.14930  0.44300  1.0000
  H   H144      1.0  0.72320  0.14930  0.05700  1.0000
  C   C177      1.0  0.30140  0.29960  0.41000  1.0000
  C   C178      1.0  0.69860  0.29960  0.09000  1.0000
  C   C179      1.0  0.80140  0.79960  0.41000  1.0000
  C   C180      1.0  0.19860  0.79960  0.09000  1.0000
  C   C181      1.0  0.69860  0.70040  0.59000  1.0000
  C   C182      1.0  0.30140  0.70040  0.91000  1.0000
  C   C183      1.0  0.19860  0.20040  0.59000  1.0000
  C   C184      1.0  0.80140  0.20040  0.91000  1.0000
  H   H145      1.0  0.33500  0.32200  0.47220  1.0000
  H   H146      1.0  0.66500  0.32200  0.02780  1.0000
  H   H147      1.0  0.83500  0.82200  0.47220  1.0000
  H   H148      1.0  0.16500  0.82200  0.02780  1.0000
  H   H149      1.0  0.66500  0.67800  0.52780  1.0000
  H   H150      1.0  0.33500  0.67800  0.97220  1.0000
  H   H151      1.0  0.16500  0.17800  0.52780  1.0000
  H   H152      1.0  0.83500  0.17800  0.97220  1.0000
  H   H153      1.0  0.30630  0.25170  0.42120  1.0000
  H   H154      1.0  0.69370  0.25170  0.07880  1.0000
  H   H155      1.0  0.80630  0.75170  0.42120  1.0000
  H   H156      1.0  0.19370  0.75170  0.07880  1.0000
  H   H157      1.0  0.69370  0.74830  0.57880  1.0000
  H   H158      1.0  0.30630  0.74830  0.92120  1.0000
  H   H159      1.0  0.19370  0.24830  0.57880  1.0000
  H   H160      1.0  0.80630  0.24830  0.92120  1.0000
  H   H161      1.0  0.30390  0.31140  0.33440  1.0000
  H   H162      1.0  0.69610  0.31140  0.16560  1.0000
  H   H163      1.0  0.80390  0.81140  0.33440  1.0000
  H   H164      1.0  0.19610  0.81140  0.16560  1.0000
  H   H165      1.0  0.69610  0.68860  0.66560  1.0000
  H   H166      1.0  0.30390  0.68860  0.83440  1.0000
  H   H167      1.0  0.19610  0.18860  0.66560  1.0000
  H   H168      1.0  0.80390  0.18860  0.83440  1.0000
