data_image0
_chemical_formula_structural       U2O18N2C6H2C2H4C2H4C6H6C2H6C2H6
_chemical_formula_sum              "U2 O18 N2 C20 H28"
_cell_length_a       8.046
_cell_length_b       16.2439
_cell_length_c       12.943
_cell_angle_alpha    90
_cell_angle_beta     100.564
_cell_angle_gamma    90

_space_group_name_H-M_alt    "P 1"
_space_group_IT_number       1

loop_
  _space_group_symop_operation_xyz
  'x, y, z'

loop_
  _atom_site_type_symbol
  _atom_site_label
  _atom_site_symmetry_multiplicity
  _atom_site_fract_x
  _atom_site_fract_y
  _atom_site_fract_z
  _atom_site_occupancy
  U   U1        1.0  0.70174  0.77932  0.37643  1.0000
  U   U2        1.0  0.29826  0.27932  0.62357  1.0000
  O   O1        1.0  0.58580  0.71400  0.44500  1.0000
  O   O2        1.0  0.41420  0.21400  0.55500  1.0000
  O   O3        1.0  0.81280  0.84600  0.30490  1.0000
  O   O4        1.0  0.18720  0.34600  0.69510  1.0000
  O   O5        1.0  0.79150  0.65770  0.28970  1.0000
  O   O6        1.0  0.20850  0.15770  0.71030  1.0000
  O   O7        1.0  0.96240  0.70230  0.43120  1.0000
  O   O8        1.0  0.03760  0.20230  0.56880  1.0000
  O   O9        1.0  0.15340  0.33450  0.45470  1.0000
  O   O10       1.0  0.84660  0.83450  0.54530  1.0000
  O   O11       1.0  0.38140  0.39980  0.53180  1.0000
  O   O12       1.0  0.61860  0.89980  0.46820  1.0000
  O   O13       1.0  0.43790  0.84570  0.28050  1.0000
  O   O14       1.0  0.56210  0.34570  0.71950  1.0000
  O   O15       1.0  0.51870  0.74110  0.20360  1.0000
  O   O16       1.0  0.48130  0.24110  0.79640  1.0000
  O   O17       1.0  0.31040  0.81290  0.12260  1.0000
  O   O18       1.0  0.68960  0.31290  0.87740  1.0000
  N   N1        1.0  0.41870  0.80010  0.19990  1.0000
  N   N2        1.0  0.58130  0.30010  0.80010  1.0000
  C   C1        1.0  0.06400  0.59170  0.33360  1.0000
  C   C2        1.0  0.93600  0.09170  0.66640  1.0000
  C   C3        1.0  0.13630  0.53770  0.43600  1.0000
  C   C4        1.0  0.86370  0.03770  0.56400  1.0000
  C   C5        1.0  0.21570  0.46690  0.38220  1.0000
  C   C6        1.0  0.78430  0.96690  0.61780  1.0000
  H   H1        1.0  0.32620  0.48700  0.36710  1.0000
  H   H2        1.0  0.67380  0.98700  0.63290  1.0000
  C   C7        1.0  0.10630  0.44320  0.27830  1.0000
  C   C8        1.0  0.89370  0.94320  0.72170  1.0000
  H   H3        1.0  0.03380  0.39520  0.28590  1.0000
  H   H4        1.0  0.96620  0.89520  0.71410  1.0000
  H   H5        1.0  0.17520  0.43130  0.22410  1.0000
  H   H6        1.0  0.82480  0.93130  0.77590  1.0000
  C   C9        1.0  0.99600  0.52620  0.25160  1.0000
  C   C10       1.0  0.00400  0.02620  0.74840  1.0000
  H   H7        1.0  0.00440  0.54600  0.18040  1.0000
  H   H8        1.0  0.99560  0.04600  0.81960  1.0000
  H   H9        1.0  0.87550  0.51480  0.25320  1.0000
  H   H10       1.0  0.12450  0.01480  0.74680  1.0000
  C   C11       1.0  0.93100  0.65380  0.35310  1.0000
  C   C12       1.0  0.06900  0.15380  0.64690  1.0000
  C   C13       1.0  0.25310  0.39500  0.45970  1.0000
  C   C14       1.0  0.74690  0.89500  0.54030  1.0000
  C   C15       1.0  0.20560  0.64250  0.30130  1.0000
  C   C16       1.0  0.79440  0.14250  0.69870  1.0000
  H   H11       1.0  0.15960  0.67600  0.23970  1.0000
  H   H12       1.0  0.84040  0.17600  0.76030  1.0000
  H   H13       1.0  0.29280  0.60560  0.28400  1.0000
  H   H14       1.0  0.70720  0.10560  0.71600  1.0000
  H   H15       1.0  0.25530  0.67860  0.35950  1.0000
  H   H16       1.0  0.74470  0.17860  0.64050  1.0000
  C   C17       1.0  0.26690  0.58260  0.51960  1.0000
  C   C18       1.0  0.73310  0.08260  0.48040  1.0000
  H   H17       1.0  0.21400  0.63090  0.54530  1.0000
  H   H18       1.0  0.78600  0.13090  0.45470  1.0000
  H   H19       1.0  0.36310  0.60010  0.48820  1.0000
  H   H20       1.0  0.63690  0.10010  0.51180  1.0000
  H   H21       1.0  0.30640  0.54520  0.57840  1.0000
  H   H22       1.0  0.69360  0.04520  0.42160  1.0000
  C   C19       1.0  0.98740  0.50670  0.48500  1.0000
  C   C20       1.0  0.01260  0.00670  0.51500  1.0000
  H   H23       1.0  0.90090  0.48270  0.43000  1.0000
  H   H24       1.0  0.09910  0.98270  0.57000  1.0000
  H   H25       1.0  0.93860  0.55280  0.51810  1.0000
  H   H26       1.0  0.06140  0.05280  0.48190  1.0000
  H   H27       1.0  0.02780  0.46470  0.53810  1.0000
  H   H28       1.0  0.97220  0.96470  0.46190  1.0000
