data_image0
_chemical_formula_structural       Mn2O12C28O2C2H24
_chemical_formula_sum              "Mn2 O14 C30 H24"
_cell_length_a       8.246
_cell_length_b       10.805
_cell_length_c       13.08
_cell_angle_alpha    68.42
_cell_angle_beta     96.8
_cell_angle_gamma    69.97

_space_group_name_H-M_alt    "P 1"
_space_group_IT_number       1

loop_
  _space_group_symop_operation_xyz
  'x, y, z'

loop_
  _atom_site_type_symbol
  _atom_site_label
  _atom_site_symmetry_multiplicity
  _atom_site_fract_x
  _atom_site_fract_y
  _atom_site_fract_z
  _atom_site_occupancy
  Mn  Mn1       1.0  0.50000  0.00000  0.50000  1.0000
  Mn  Mn2       1.0  0.00000  0.50000  0.50000  1.0000
  O   O1        1.0  0.47550  0.84940  0.61770  1.0000
  O   O2        1.0  0.52450  0.15060  0.38230  1.0000
  O   O3        1.0  0.35440  0.14760  0.53990  1.0000
  O   O4        1.0  0.64560  0.85240  0.46010  1.0000
  O   O5        1.0  0.12060  0.24740  0.59520  1.0000
  O   O6        1.0  0.87940  0.75260  0.40480  1.0000
  O   O7        1.0  0.09400  0.51110  0.37530  1.0000
  O   O8        1.0  0.90600  0.48890  0.62470  1.0000
  O   O9        1.0  0.78150  0.50870  0.42180  1.0000
  O   O10       1.0  0.21850  0.49130  0.57820  1.0000
  O   O11       1.0  0.55400  0.57880  0.27700  1.0000
  O   O12       1.0  0.44600  0.42120  0.72300  1.0000
  C   C1        1.0  0.29430  0.99200  0.70200  1.0000
  C   C2        1.0  0.70570  0.00800  0.29800  1.0000
  C   C3        1.0  0.40040  0.85840  0.70190  1.0000
  C   C4        1.0  0.59960  0.14160  0.29810  1.0000
  C   C5        1.0  0.42610  0.72600  0.79210  1.0000
  C   C6        1.0  0.57390  0.27400  0.20790  1.0000
  C   C7        1.0  0.35240  0.72740  0.88130  1.0000
  C   C8        1.0  0.64760  0.27260  0.11870  1.0000
  C   C9        1.0  0.25310  0.85810  0.88390  1.0000
  C   C10       1.0  0.74690  0.14190  0.11610  1.0000
  C   C11       1.0  0.22550  0.98790  0.79520  1.0000
  C   C12       1.0  0.77450  0.01210  0.20480  1.0000
  C   C13       1.0  0.25300  0.13720  0.60720  1.0000
  C   C14       1.0  0.74700  0.86280  0.39280  1.0000
  C   C15       1.0  0.00260  0.55760  0.26730  1.0000
  C   C16       1.0  0.99740  0.44240  0.73270  1.0000
  C   C17       1.0  0.82330  0.58040  0.23330  1.0000
  C   C18       1.0  0.17670  0.41960  0.76670  1.0000
  C   C19       1.0  0.74410  0.62550  0.11710  1.0000
  C   C20       1.0  0.25590  0.37450  0.88290  1.0000
  C   C21       1.0  0.83650  0.64720  0.03760  1.0000
  C   C22       1.0  0.16350  0.35280  0.96240  1.0000
  C   C23       1.0  0.01170  0.62660  0.07100  1.0000
  C   C24       1.0  0.98830  0.37340  0.92900  1.0000
  C   C25       1.0  0.09480  0.58240  0.18360  1.0000
  C   C26       1.0  0.90520  0.41760  0.81640  1.0000
  C   C27       1.0  0.71310  0.55600  0.31330  1.0000
  C   C28       1.0  0.28690  0.44400  0.68670  1.0000
  O   O13       1.0  0.24470  0.03910  0.38380  1.0000
  O   O14       1.0  0.75530  0.96090  0.61620  1.0000
  C   C29       1.0  0.09940  0.17560  0.31550  1.0000
  C   C30       1.0  0.90060  0.82440  0.68450  1.0000
  H   H1        1.0  0.49430  0.63600  0.79250  1.0000
  H   H2        1.0  0.50570  0.36400  0.20750  1.0000
  H   H3        1.0  0.36390  0.63900  0.94380  1.0000
  H   H4        1.0  0.63610  0.36100  0.05620  1.0000
  H   H5        1.0  0.21440  0.85520  0.94150  1.0000
  H   H6        1.0  0.78560  0.14480  0.05850  1.0000
  H   H7        1.0  0.16280  0.07400  0.79520  1.0000
  H   H8        1.0  0.83720  0.92600  0.20480  1.0000
  H   H9        1.0  0.63360  0.63620  0.10130  1.0000
  H   H10       1.0  0.36640  0.36380  0.89870  1.0000
  H   H11       1.0  0.77740  0.67180  0.96290  1.0000
  H   H12       1.0  0.22260  0.32820  0.03710  1.0000
  H   H13       1.0  0.07810  0.64110  0.01790  1.0000
  H   H14       1.0  0.92190  0.35890  0.98210  1.0000
  H   H15       1.0  0.21430  0.56300  0.20930  1.0000
  H   H16       1.0  0.78570  0.43700  0.79070  1.0000
  H   H17       1.0  0.22660  0.98190  0.38130  1.0000
  H   H18       1.0  0.77340  0.01810  0.61870  1.0000
  H   H19       1.0  0.04150  0.17990  0.25080  1.0000
  H   H20       1.0  0.95850  0.82010  0.74920  1.0000
  H   H21       1.0  0.01730  0.15470  0.36970  1.0000
  H   H22       1.0  0.98270  0.84530  0.63030  1.0000
  H   H23       1.0  0.12050  0.24800  0.30890  1.0000
  H   H24       1.0  0.87950  0.75200  0.69110  1.0000
