data_image0
_chemical_formula_structural       U8O64C8H4C8H4C4H4C4H4C4H8C8H8C12H4C8H4C4H4C4H4C4H8C8H8C12H4C8H4C4H4C4H4C4H8C8H8C4
_chemical_formula_sum              "U8 O64 C120 H96"
_cell_length_a       14.8585
_cell_length_b       14.8241
_cell_length_c       27.402
_cell_angle_alpha    90
_cell_angle_beta     100.624
_cell_angle_gamma    90

_space_group_name_H-M_alt    "P 1"
_space_group_IT_number       1

loop_
  _space_group_symop_operation_xyz
  'x, y, z'

loop_
  _atom_site_type_symbol
  _atom_site_label
  _atom_site_symmetry_multiplicity
  _atom_site_fract_x
  _atom_site_fract_y
  _atom_site_fract_z
  _atom_site_occupancy
  U   U1        1.0  0.58390  0.79277  0.44942  1.0000
  U   U2        1.0  0.41610  0.29277  0.05058  1.0000
  U   U3        1.0  0.41610  0.20723  0.55058  1.0000
  U   U4        1.0  0.58390  0.70723  0.94942  1.0000
  U   U5        1.0  0.05257  0.33031  0.70960  1.0000
  U   U6        1.0  0.94743  0.83031  0.79040  1.0000
  U   U7        1.0  0.94743  0.66969  0.29040  1.0000
  U   U8        1.0  0.05257  0.16969  0.20960  1.0000
  O   O1        1.0  0.47350  0.81050  0.46363  1.0000
  O   O2        1.0  0.52650  0.31050  0.03637  1.0000
  O   O3        1.0  0.52650  0.18950  0.53637  1.0000
  O   O4        1.0  0.47350  0.68950  0.96363  1.0000
  O   O5        1.0  0.69420  0.77320  0.43510  1.0000
  O   O6        1.0  0.30580  0.27320  0.06490  1.0000
  O   O7        1.0  0.30580  0.22680  0.56490  1.0000
  O   O8        1.0  0.69420  0.72680  0.93510  1.0000
  O   O9        1.0  0.98720  0.36030  0.75486  1.0000
  O   O10       1.0  0.01280  0.86030  0.74514  1.0000
  O   O11       1.0  0.01280  0.63970  0.24514  1.0000
  O   O12       1.0  0.98720  0.13970  0.25486  1.0000
  O   O13       1.0  0.11800  0.30090  0.66406  1.0000
  O   O14       1.0  0.88200  0.80090  0.83594  1.0000
  O   O15       1.0  0.88200  0.69910  0.33594  1.0000
  O   O16       1.0  0.11800  0.19910  0.16406  1.0000
  O   O17       1.0  0.62130  0.67970  0.51580  1.0000
  O   O18       1.0  0.37870  0.17970  0.98420  1.0000
  O   O19       1.0  0.37870  0.32030  0.48420  1.0000
  O   O20       1.0  0.62130  0.82030  0.01580  1.0000
  O   O21       1.0  0.55530  0.62890  0.44308  1.0000
  O   O22       1.0  0.44470  0.12890  0.05692  1.0000
  O   O23       1.0  0.44470  0.37110  0.55692  1.0000
  O   O24       1.0  0.55530  0.87110  0.94308  1.0000
  O   O25       1.0  0.93290  0.39540  0.64546  1.0000
  O   O26       1.0  0.06710  0.89540  0.85454  1.0000
  O   O27       1.0  0.06710  0.60460  0.35454  1.0000
  O   O28       1.0  0.93290  0.10460  0.14546  1.0000
  O   O29       1.0  0.04540  0.48480  0.67877  1.0000
  O   O30       1.0  0.95460  0.98480  0.82123  1.0000
  O   O31       1.0  0.95460  0.51520  0.32123  1.0000
  O   O32       1.0  0.04540  0.01520  0.17877  1.0000
  O   O33       1.0  0.51880  0.74900  0.36225  1.0000
  O   O34       1.0  0.48120  0.24900  0.13775  1.0000
  O   O35       1.0  0.48120  0.25100  0.63775  1.0000
  O   O36       1.0  0.51880  0.75100  0.86225  1.0000
  O   O37       1.0  0.54800  0.89340  0.37681  1.0000
  O   O38       1.0  0.45200  0.39340  0.12319  1.0000
  O   O39       1.0  0.45200  0.10660  0.62319  1.0000
  O   O40       1.0  0.54800  0.60660  0.87681  1.0000
  O   O41       1.0  0.18360  0.07490  0.25112  1.0000
  O   O42       1.0  0.81640  0.57490  0.24888  1.0000
  O   O43       1.0  0.81640  0.92510  0.74888  1.0000
  O   O44       1.0  0.18360  0.42510  0.75112  1.0000
  O   O45       1.0  0.18290  0.21710  0.27349  1.0000
  O   O46       1.0  0.81710  0.71710  0.22651  1.0000
  O   O47       1.0  0.81710  0.78290  0.72651  1.0000
  O   O48       1.0  0.18290  0.28290  0.77349  1.0000
  O   O49       1.0  0.04290  0.17330  0.73586  1.0000
  O   O50       1.0  0.95710  0.67330  0.76414  1.0000
  O   O51       1.0  0.95710  0.82670  0.26414  1.0000
  O   O52       1.0  0.04290  0.32670  0.23586  1.0000
  O   O53       1.0  0.94150  0.21680  0.67183  1.0000
  O   O54       1.0  0.05850  0.71680  0.82817  1.0000
  O   O55       1.0  0.05850  0.78320  0.32817  1.0000
  O   O56       1.0  0.94150  0.28320  0.17183  1.0000
  O   O57       1.0  0.62390  0.95350  0.46679  1.0000
  O   O58       1.0  0.37610  0.45350  0.03321  1.0000
  O   O59       1.0  0.37610  0.04650  0.53321  1.0000
  O   O60       1.0  0.62390  0.54650  0.96679  1.0000
  O   O61       1.0  0.65860  0.85980  0.52916  1.0000
  O   O62       1.0  0.34140  0.35980  0.97084  1.0000
  O   O63       1.0  0.34140  0.14020  0.47084  1.0000
  O   O64       1.0  0.65860  0.64020  0.02916  1.0000
  C   C1        1.0  0.71950  0.50360  0.51533  1.0000
  C   C2        1.0  0.28050  0.00360  0.98467  1.0000
  C   C3        1.0  0.28050  0.49640  0.48467  1.0000
  C   C4        1.0  0.71950  0.99640  0.01533  1.0000
  C   C5        1.0  0.77450  0.53080  0.55956  1.0000
  C   C6        1.0  0.22550  0.03080  0.94044  1.0000
  C   C7        1.0  0.22550  0.46920  0.44044  1.0000
  C   C8        1.0  0.77450  0.96920  0.05956  1.0000
  H   H1        1.0  0.74650  0.55700  0.58460  1.0000
  H   H2        1.0  0.25350  0.05700  0.91540  1.0000
  H   H3        1.0  0.25350  0.44300  0.41540  1.0000
  H   H4        1.0  0.74650  0.94300  0.08460  1.0000
  C   C9        1.0  0.86830  0.52090  0.56822  1.0000
  C   C10       1.0  0.13170  0.02090  0.93178  1.0000
  C   C11       1.0  0.13170  0.47910  0.43178  1.0000
  C   C12       1.0  0.86830  0.97910  0.06822  1.0000
  C   C13       1.0  0.91000  0.48170  0.53200  1.0000
  C   C14       1.0  0.09000  0.98170  0.96800  1.0000
  C   C15       1.0  0.09000  0.51830  0.46800  1.0000
  C   C16       1.0  0.91000  0.01830  0.03200  1.0000
  H   H5        1.0  0.97440  0.47270  0.53780  1.0000
  H   H6        1.0  0.02560  0.97270  0.96220  1.0000
  H   H7        1.0  0.02560  0.52730  0.46220  1.0000
  H   H8        1.0  0.97440  0.02730  0.03780  1.0000
  C   C17       1.0  0.85610  0.45560  0.48707  1.0000
  C   C18       1.0  0.14390  0.95560  0.01293  1.0000
  C   C19       1.0  0.14390  0.54440  0.51293  1.0000
  C   C20       1.0  0.85610  0.04440  0.98707  1.0000
  H   H9        1.0  0.88410  0.43070  0.46160  1.0000
  H   H10       1.0  0.11590  0.93070  0.03840  1.0000
  H   H11       1.0  0.11590  0.56930  0.53840  1.0000
  H   H12       1.0  0.88410  0.06930  0.96160  1.0000
  C   C21       1.0  0.76270  0.46580  0.47938  1.0000
  C   C22       1.0  0.23730  0.96580  0.02062  1.0000
  C   C23       1.0  0.23730  0.53420  0.52062  1.0000
  C   C24       1.0  0.76270  0.03420  0.97938  1.0000
  H   H13       1.0  0.72680  0.44660  0.44880  1.0000
  H   H14       1.0  0.27320  0.94660  0.05120  1.0000
  H   H15       1.0  0.27320  0.55340  0.55120  1.0000
  H   H16       1.0  0.72680  0.05340  0.94880  1.0000
  C   C25       1.0  0.61690  0.51860  0.50470  1.0000
  C   C26       1.0  0.38310  0.01860  0.99530  1.0000
  C   C27       1.0  0.38310  0.48140  0.49530  1.0000
  C   C28       1.0  0.61690  0.98140  0.00470  1.0000
  H   H17       1.0  0.58760  0.47560  0.47890  1.0000
  H   H18       1.0  0.41240  0.97560  0.02110  1.0000
  H   H19       1.0  0.41240  0.52440  0.52110  1.0000
  H   H20       1.0  0.58760  0.02440  0.97890  1.0000
  H   H21       1.0  0.59170  0.50760  0.53520  1.0000
  H   H22       1.0  0.40830  0.00760  0.96480  1.0000
  H   H23       1.0  0.40830  0.49240  0.46480  1.0000
  H   H24       1.0  0.59170  0.99240  0.03520  1.0000
  C   C29       1.0  0.59610  0.61420  0.48702  1.0000
  C   C30       1.0  0.40390  0.11420  0.01298  1.0000
  C   C31       1.0  0.40390  0.38580  0.51298  1.0000
  C   C32       1.0  0.59610  0.88580  0.98702  1.0000
  C   C33       1.0  0.92770  0.54910  0.61641  1.0000
  C   C34       1.0  0.07230  0.04910  0.88359  1.0000
  C   C35       1.0  0.07230  0.45090  0.38359  1.0000
  C   C36       1.0  0.92770  0.95090  0.11641  1.0000
  H   H25       1.0  0.97720  0.58860  0.60900  1.0000
  H   H26       1.0  0.02280  0.08860  0.89100  1.0000
  H   H27       1.0  0.02280  0.41140  0.39100  1.0000
  H   H28       1.0  0.97720  0.91140  0.10900  1.0000
  H   H29       1.0  0.89030  0.58500  0.63570  1.0000
  H   H30       1.0  0.10970  0.08500  0.86430  1.0000
  H   H31       1.0  0.10970  0.41500  0.36430  1.0000
  H   H32       1.0  0.89030  0.91500  0.13570  1.0000
  C   C37       1.0  0.97020  0.47180  0.64798  1.0000
  C   C38       1.0  0.02980  0.97180  0.85202  1.0000
  C   C39       1.0  0.02980  0.52820  0.35202  1.0000
  C   C40       1.0  0.97020  0.02820  0.14798  1.0000
  C   C41       1.0  0.47730  0.95650  0.28260  1.0000
  C   C42       1.0  0.52270  0.45650  0.21740  1.0000
  C   C43       1.0  0.52270  0.04350  0.71740  1.0000
  C   C44       1.0  0.47730  0.54350  0.78260  1.0000
  C   C45       1.0  0.40420  0.99680  0.29860  1.0000
  C   C46       1.0  0.59580  0.49680  0.20140  1.0000
  C   C47       1.0  0.59580  0.00320  0.70140  1.0000
  C   C48       1.0  0.40420  0.50320  0.79860  1.0000
  H   H33       1.0  0.36540  0.96170  0.31510  1.0000
  H   H34       1.0  0.63460  0.46170  0.18490  1.0000
  H   H35       1.0  0.63460  0.03830  0.68490  1.0000
  H   H36       1.0  0.36540  0.53830  0.81510  1.0000
  C   C49       1.0  0.38590  0.09260  0.29040  1.0000
  C   C50       1.0  0.61410  0.59260  0.20960  1.0000
  C   C51       1.0  0.61410  0.90740  0.70960  1.0000
  C   C52       1.0  0.38590  0.40740  0.79040  1.0000
  C   C53       1.0  0.43790  0.14110  0.26580  1.0000
  C   C54       1.0  0.56210  0.64110  0.23420  1.0000
  C   C55       1.0  0.56210  0.85890  0.73420  1.0000
  C   C56       1.0  0.43790  0.35890  0.76580  1.0000
  H   H37       1.0  0.42480  0.20310  0.25930  1.0000
  H   H38       1.0  0.57520  0.70310  0.24070  1.0000
  H   H39       1.0  0.57520  0.79690  0.74070  1.0000
  H   H40       1.0  0.42480  0.29690  0.75930  1.0000
  C   C57       1.0  0.51480  0.09920  0.24880  1.0000
  C   C58       1.0  0.48520  0.59920  0.25120  1.0000
  C   C59       1.0  0.48520  0.90080  0.75120  1.0000
  C   C60       1.0  0.51480  0.40080  0.74880  1.0000
  H   H41       1.0  0.55340  0.13410  0.23210  1.0000
  H   H42       1.0  0.44660  0.63410  0.26790  1.0000
  H   H43       1.0  0.44660  0.86590  0.76790  1.0000
  H   H44       1.0  0.55340  0.36590  0.73210  1.0000
  C   C61       1.0  0.53120  0.01090  0.25680  1.0000
  C   C62       1.0  0.46880  0.51090  0.24320  1.0000
  C   C63       1.0  0.46880  0.98910  0.74320  1.0000
  C   C64       1.0  0.53120  0.48910  0.75680  1.0000
  H   H45       1.0  0.58080  0.98400  0.24480  1.0000
  H   H46       1.0  0.41920  0.48400  0.25520  1.0000
  H   H47       1.0  0.41920  0.01600  0.75520  1.0000
  H   H48       1.0  0.58080  0.51600  0.74480  1.0000
  C   C65       1.0  0.49830  0.84990  0.29230  1.0000
  C   C66       1.0  0.50170  0.34990  0.20770  1.0000
  C   C67       1.0  0.50170  0.15010  0.70770  1.0000
  C   C68       1.0  0.49830  0.65010  0.79230  1.0000
  H   H49       1.0  0.44360  0.81430  0.27770  1.0000
  H   H50       1.0  0.55640  0.31430  0.22230  1.0000
  H   H51       1.0  0.55640  0.18570  0.72230  1.0000
  H   H52       1.0  0.44360  0.68570  0.77770  1.0000
  H   H53       1.0  0.54940  0.83150  0.27580  1.0000
  H   H54       1.0  0.45060  0.33150  0.22420  1.0000
  H   H55       1.0  0.45060  0.16850  0.72420  1.0000
  H   H56       1.0  0.54940  0.66850  0.77580  1.0000
  C   C69       1.0  0.52320  0.83070  0.34730  1.0000
  C   C70       1.0  0.47680  0.33070  0.15270  1.0000
  C   C71       1.0  0.47680  0.16930  0.65270  1.0000
  C   C72       1.0  0.52320  0.66930  0.84730  1.0000
  C   C73       1.0  0.31010  0.12880  0.31216  1.0000
  C   C74       1.0  0.68990  0.62880  0.18784  1.0000
  C   C75       1.0  0.68990  0.87120  0.68784  1.0000
  C   C76       1.0  0.31010  0.37120  0.81216  1.0000
  H   H57       1.0  0.32880  0.18820  0.32720  1.0000
  H   H58       1.0  0.67120  0.68820  0.17280  1.0000
  H   H59       1.0  0.67120  0.81180  0.67280  1.0000
  H   H60       1.0  0.32880  0.31180  0.82720  1.0000
  H   H61       1.0  0.30010  0.08810  0.33930  1.0000
  H   H62       1.0  0.69990  0.58810  0.16070  1.0000
  H   H63       1.0  0.69990  0.91190  0.66070  1.0000
  H   H64       1.0  0.30010  0.41190  0.83930  1.0000
  C   C77       1.0  0.22020  0.14020  0.27664  1.0000
  C   C78       1.0  0.77980  0.64020  0.22336  1.0000
  C   C79       1.0  0.77980  0.85980  0.72336  1.0000
  C   C80       1.0  0.22020  0.35980  0.77664  1.0000
  C   C81       1.0  0.90850  0.03410  0.64095  1.0000
  C   C82       1.0  0.09150  0.53410  0.85905  1.0000
  C   C83       1.0  0.09150  0.96590  0.35905  1.0000
  C   C84       1.0  0.90850  0.46590  0.14095  1.0000
  C   C85       1.0  0.81610  0.03480  0.61959  1.0000
  C   C86       1.0  0.18390  0.53480  0.88041  1.0000
  C   C87       1.0  0.18390  0.96520  0.38041  1.0000
  C   C88       1.0  0.81610  0.46520  0.11959  1.0000
  H   H65       1.0  0.77230  0.05030  0.63950  1.0000
  H   H66       1.0  0.22770  0.55030  0.86050  1.0000
  H   H67       1.0  0.22770  0.94970  0.36050  1.0000
  H   H68       1.0  0.77230  0.44970  0.13950  1.0000
  C   C89       1.0  0.78590  0.01340  0.56950  1.0000
  C   C90       1.0  0.21410  0.51340  0.93050  1.0000
  C   C91       1.0  0.21410  0.98660  0.43050  1.0000
  C   C92       1.0  0.78590  0.48660  0.06950  1.0000
  C   C93       1.0  0.85200  0.99020  0.54138  1.0000
  C   C94       1.0  0.14800  0.49020  0.95862  1.0000
  C   C95       1.0  0.14800  0.00980  0.45862  1.0000
  C   C96       1.0  0.85200  0.50980  0.04138  1.0000
  H   H69       1.0  0.83330  0.97530  0.50730  1.0000
  H   H70       1.0  0.16670  0.47530  0.99270  1.0000
  H   H71       1.0  0.16670  0.02470  0.49270  1.0000
  H   H72       1.0  0.83330  0.52470  0.00730  1.0000
  C   C97       1.0  0.94320  0.98880  0.56210  1.0000
  C   C98       1.0  0.05680  0.48880  0.93790  1.0000
  C   C99       1.0  0.05680  0.01120  0.43790  1.0000
  C   C100      1.0  0.94320  0.51120  0.06210  1.0000
  H   H73       1.0  0.98710  0.97290  0.54240  1.0000
  H   H74       1.0  0.01290  0.47290  0.95760  1.0000
  H   H75       1.0  0.01290  0.02710  0.45760  1.0000
  H   H76       1.0  0.98710  0.52710  0.04240  1.0000
  C   C101      1.0  0.97160  0.01040  0.61182  1.0000
  C   C102      1.0  0.02840  0.51040  0.88818  1.0000
  C   C103      1.0  0.02840  0.98960  0.38818  1.0000
  C   C104      1.0  0.97160  0.48960  0.11182  1.0000
  H   H77       1.0  0.03500  0.00900  0.62600  1.0000
  H   H78       1.0  0.96500  0.50900  0.87400  1.0000
  H   H79       1.0  0.96500  0.99100  0.37400  1.0000
  H   H80       1.0  0.03500  0.49100  0.12600  1.0000
  C   C105      1.0  0.94200  0.05910  0.69499  1.0000
  C   C106      1.0  0.05800  0.55910  0.80501  1.0000
  C   C107      1.0  0.05800  0.94090  0.30501  1.0000
  C   C108      1.0  0.94200  0.44090  0.19499  1.0000
  H   H81       1.0  0.89110  0.05190  0.71350  1.0000
  H   H82       1.0  0.10890  0.55190  0.78650  1.0000
  H   H83       1.0  0.10890  0.94810  0.28650  1.0000
  H   H84       1.0  0.89110  0.44810  0.21350  1.0000
  H   H85       1.0  0.99160  0.01730  0.70970  1.0000
  H   H86       1.0  0.00840  0.51730  0.79030  1.0000
  H   H87       1.0  0.00840  0.98270  0.29030  1.0000
  H   H88       1.0  0.99160  0.48270  0.20970  1.0000
  C   C109      1.0  0.97690  0.15460  0.70071  1.0000
  C   C110      1.0  0.02310  0.65460  0.79929  1.0000
  C   C111      1.0  0.02310  0.84540  0.29929  1.0000
  C   C112      1.0  0.97690  0.34540  0.20071  1.0000
  C   C113      1.0  0.68520  0.01820  0.54670  1.0000
  C   C114      1.0  0.31480  0.51820  0.95330  1.0000
  C   C115      1.0  0.31480  0.98180  0.45330  1.0000
  C   C116      1.0  0.68520  0.48180  0.04670  1.0000
  H   H89       1.0  0.67310  0.07520  0.52780  1.0000
  H   H90       1.0  0.32690  0.57520  0.97220  1.0000
  H   H91       1.0  0.32690  0.92480  0.47220  1.0000
  H   H92       1.0  0.67310  0.42480  0.02780  1.0000
  H   H93       1.0  0.64880  0.01910  0.57350  1.0000
  H   H94       1.0  0.35120  0.51910  0.92650  1.0000
  H   H95       1.0  0.35120  0.98090  0.42650  1.0000
  H   H96       1.0  0.64880  0.48090  0.07350  1.0000
  C   C117      1.0  0.65410  0.93940  0.51228  1.0000
  C   C118      1.0  0.34590  0.43940  0.98772  1.0000
  C   C119      1.0  0.34590  0.06060  0.48772  1.0000
  C   C120      1.0  0.65410  0.56060  0.01228  1.0000
