data_image0
_chemical_formula_structural       U4O32C6H2C2H2C2H2C2H2C2H4C4H4C8H2C2H2C2H2C2H2C2H4C4H4C8H2C2H2C2H2C2H2C2H4C4H4C2
_chemical_formula_sum              "U4 O32 C60 H48"
_cell_length_a       14.1948
_cell_length_b       14.6335
_cell_length_c       18.5407
_cell_angle_alpha    66.9
_cell_angle_beta     73.68
_cell_angle_gamma    71.404

_space_group_name_H-M_alt    "P 1"
_space_group_IT_number       1

loop_
  _space_group_symop_operation_xyz
  'x, y, z'

loop_
  _atom_site_type_symbol
  _atom_site_label
  _atom_site_symmetry_multiplicity
  _atom_site_fract_x
  _atom_site_fract_y
  _atom_site_fract_z
  _atom_site_occupancy
  U   U1        1.0  0.38479  0.38543  0.19184  1.0000
  U   U2        1.0  0.61521  0.61457  0.80816  1.0000
  U   U3        1.0  0.80229  0.64631  0.31746  1.0000
  U   U4        1.0  0.19771  0.35369  0.68254  1.0000
  O   O1        1.0  0.32280  0.45580  0.25847  1.0000
  O   O2        1.0  0.67720  0.54420  0.74153  1.0000
  O   O3        1.0  0.44360  0.31720  0.12445  1.0000
  O   O4        1.0  0.55640  0.68280  0.87555  1.0000
  O   O5        1.0  0.74560  0.77600  0.26833  1.0000
  O   O6        1.0  0.25440  0.22400  0.73167  1.0000
  O   O7        1.0  0.85950  0.51760  0.36680  1.0000
  O   O8        1.0  0.14050  0.48240  0.63320  1.0000
  O   O9        1.0  0.54270  0.41890  0.18959  1.0000
  O   O10       1.0  0.45730  0.58110  0.81041  1.0000
  O   O11       1.0  0.45670  0.52930  0.09647  1.0000
  O   O12       1.0  0.54330  0.47070  0.90353  1.0000
  O   O13       1.0  0.63840  0.60540  0.34974  1.0000
  O   O14       1.0  0.36160  0.39460  0.65026  1.0000
  O   O15       1.0  0.73430  0.59390  0.23751  1.0000
  O   O16       1.0  0.26570  0.40610  0.76249  1.0000
  O   O17       1.0  0.26940  0.50520  0.10134  1.0000
  O   O18       1.0  0.73060  0.49480  0.89866  1.0000
  O   O19       1.0  0.22060  0.36720  0.18214  1.0000
  O   O20       1.0  0.77940  0.63280  0.81786  1.0000
  O   O21       1.0  0.91730  0.63940  0.19108  1.0000
  O   O22       1.0  0.08270  0.36060  0.80892  1.0000
  O   O23       1.0  0.96900  0.68940  0.26666  1.0000
  O   O24       1.0  0.03100  0.31060  0.73334  1.0000
  O   O25       1.0  0.85450  0.69920  0.40642  1.0000
  O   O26       1.0  0.14550  0.30080  0.59358  1.0000
  O   O27       1.0  0.70660  0.66140  0.44785  1.0000
  O   O28       1.0  0.29340  0.33860  0.55215  1.0000
  O   O29       1.0  0.66470  0.76410  0.70168  1.0000
  O   O30       1.0  0.33530  0.23590  0.29832  1.0000
  O   O31       1.0  0.51670  0.74530  0.70336  1.0000
  O   O32       1.0  0.48330  0.25470  0.29664  1.0000
  C   C1        1.0  0.57360  0.66510  0.10170  1.0000
  C   C2        1.0  0.42640  0.33490  0.89830  1.0000
  C   C3        1.0  0.54850  0.68160  0.17450  1.0000
  C   C4        1.0  0.45150  0.31840  0.82550  1.0000
  C   C5        1.0  0.51320  0.78190  0.17610  1.0000
  C   C6        1.0  0.48680  0.21810  0.82390  1.0000
  H   H1        1.0  0.49690  0.79320  0.22570  1.0000
  H   H2        1.0  0.50310  0.20680  0.77430  1.0000
  C   C7        1.0  0.50190  0.86290  0.10850  1.0000
  C   C8        1.0  0.49810  0.13710  0.89150  1.0000
  H   H3        1.0  0.47790  0.93020  0.11100  1.0000
  H   H4        1.0  0.52210  0.06980  0.88900  1.0000
  C   C9        1.0  0.52490  0.84820  0.03580  1.0000
  C   C10       1.0  0.47510  0.15180  0.96420  1.0000
  H   H5        1.0  0.51660  0.90500  0.98820  1.0000
  H   H6        1.0  0.48340  0.09500  0.01180  1.0000
  C   C11       1.0  0.55990  0.75010  0.03320  1.0000
  C   C12       1.0  0.44010  0.24990  0.96680  1.0000
  H   H7        1.0  0.57530  0.74000  0.98310  1.0000
  H   H8        1.0  0.42470  0.26000  0.01690  1.0000
  C   C13       1.0  0.61450  0.55930  0.09500  1.0000
  C   C14       1.0  0.38550  0.44070  0.90500  1.0000
  H   H9        1.0  0.64040  0.56520  0.03830  1.0000
  H   H10       1.0  0.35960  0.43480  0.96170  1.0000
  H   H11       1.0  0.67160  0.52240  0.12420  1.0000
  H   H12       1.0  0.32840  0.47760  0.87580  1.0000
  C   C15       1.0  0.53440  0.49890  0.12830  1.0000
  C   C16       1.0  0.46560  0.50110  0.87170  1.0000
  C   C17       1.0  0.56100  0.59440  0.25350  1.0000
  C   C18       1.0  0.43900  0.40560  0.74650  1.0000
  H   H13       1.0  0.49840  0.60220  0.29330  1.0000
  H   H14       1.0  0.50160  0.39780  0.70670  1.0000
  H   H15       1.0  0.57340  0.52800  0.24580  1.0000
  H   H16       1.0  0.42660  0.47200  0.75420  1.0000
  C   C19       1.0  0.64880  0.59670  0.28300  1.0000
  C   C20       1.0  0.35120  0.40330  0.71700  1.0000
  C   C21       1.0  0.09160  0.60300  0.04230  1.0000
  C   C22       1.0  0.90840  0.39700  0.95770  1.0000
  C   C23       1.0  0.08080  0.69060  0.06050  1.0000
  C   C24       1.0  0.91920  0.30940  0.93950  1.0000
  C   C25       1.0  0.07610  0.78450  0.99910  1.0000
  C   C26       1.0  0.92390  0.21550  0.00090  1.0000
  H   H17       1.0  0.06830  0.84400  0.01140  1.0000
  H   H18       1.0  0.93170  0.15600  0.98860  1.0000
  C   C27       1.0  0.08220  0.79360  0.92150  1.0000
  C   C28       1.0  0.91780  0.20640  0.07850  1.0000
  H   H19       1.0  0.07810  0.85860  0.88090  1.0000
  H   H20       1.0  0.92190  0.14140  0.11910  1.0000
  C   C29       1.0  0.09450  0.70740  0.90300  1.0000
  C   C30       1.0  0.90550  0.29260  0.09700  1.0000
  H   H21       1.0  0.09990  0.71260  0.84940  1.0000
  H   H22       1.0  0.90010  0.28740  0.15060  1.0000
  C   C31       1.0  0.09880  0.61320  0.96300  1.0000
  C   C32       1.0  0.90120  0.38680  0.03700  1.0000
  H   H23       1.0  0.10690  0.55430  0.94990  1.0000
  H   H24       1.0  0.89310  0.44570  0.05010  1.0000
  C   C33       1.0  0.10030  0.49920  0.10480  1.0000
  C   C34       1.0  0.89970  0.50080  0.89520  1.0000
  H   H25       1.0  0.08760  0.45220  0.08400  1.0000
  H   H26       1.0  0.91240  0.54780  0.91600  1.0000
  H   H27       1.0  0.04740  0.50390  0.15200  1.0000
  H   H28       1.0  0.95260  0.49610  0.84800  1.0000
  C   C35       1.0  0.20320  0.45390  0.13080  1.0000
  C   C36       1.0  0.79680  0.54610  0.86920  1.0000
  C   C37       1.0  0.07880  0.68570  0.14360  1.0000
  C   C38       1.0  0.92120  0.31430  0.85640  1.0000
  H   H29       1.0  0.13510  0.62910  0.16490  1.0000
  H   H30       1.0  0.86490  0.37090  0.83510  1.0000
  H   H31       1.0  0.09210  0.75000  0.14000  1.0000
  H   H32       1.0  0.90790  0.25000  0.86000  1.0000
  C   C39       1.0  0.98300  0.67070  0.20260  1.0000
  C   C40       1.0  0.01700  0.32930  0.79740  1.0000
  C   C41       1.0  0.77930  0.80840  0.52450  1.0000
  C   C42       1.0  0.22070  0.19160  0.47550  1.0000
  C   C43       1.0  0.69510  0.88330  0.54220  1.0000
  C   C44       1.0  0.30490  0.11670  0.45780  1.0000
  C   C45       1.0  0.70860  0.97980  0.52810  1.0000
  C   C46       1.0  0.29140  0.02020  0.47190  1.0000
  H   H33       1.0  0.65180  0.03140  0.53920  1.0000
  H   H34       1.0  0.34820  0.96860  0.46080  1.0000
  C   C47       1.0  0.80230  0.00180  0.49850  1.0000
  C   C48       1.0  0.19770  0.99820  0.50150  1.0000
  H   H35       1.0  0.80970  0.06800  0.48910  1.0000
  H   H36       1.0  0.19030  0.93200  0.51090  1.0000
  C   C49       1.0  0.88560  0.92730  0.48230  1.0000
  C   C50       1.0  0.11440  0.07270  0.51770  1.0000
  H   H37       1.0  0.95070  0.94140  0.46330  1.0000
  H   H38       1.0  0.04930  0.05860  0.53670  1.0000
  C   C51       1.0  0.87310  0.83110  0.49420  1.0000
  C   C52       1.0  0.12690  0.16890  0.50580  1.0000
  H   H39       1.0  0.92980  0.78050  0.48130  1.0000
  H   H40       1.0  0.07020  0.21950  0.51870  1.0000
  C   C53       1.0  0.76940  0.70230  0.53730  1.0000
  C   C54       1.0  0.23060  0.29770  0.46270  1.0000
  H   H41       1.0  0.82310  0.65020  0.56570  1.0000
  H   H42       1.0  0.17690  0.34980  0.43430  1.0000
  H   H43       1.0  0.70340  0.69220  0.57130  1.0000
  H   H44       1.0  0.29660  0.30780  0.42870  1.0000
  C   C55       1.0  0.77720  0.68690  0.45960  1.0000
  C   C56       1.0  0.22280  0.31310  0.54040  1.0000
  C   C57       1.0  0.59300  0.85980  0.58170  1.0000
  C   C58       1.0  0.40700  0.14020  0.41830  1.0000
  H   H45       1.0  0.57390  0.82940  0.55030  1.0000
  H   H46       1.0  0.42610  0.17060  0.44970  1.0000
  H   H47       1.0  0.54200  0.92440  0.58150  1.0000
  H   H48       1.0  0.45800  0.07560  0.41850  1.0000
  C   C59       1.0  0.59140  0.78660  0.66720  1.0000
  C   C60       1.0  0.40860  0.21340  0.33280  1.0000
