data_image0
_chemical_formula_structural       U4O32C8H4C4H4C8H4C4H4C4H8C8H8C12H4C4H4C4H8C4
_chemical_formula_sum              "U4 O32 C60 H48"
_cell_length_a       17.156
_cell_length_b       7.9076
_cell_length_c       20.6059
_cell_angle_alpha    90
_cell_angle_beta     107.411
_cell_angle_gamma    90

_space_group_name_H-M_alt    "P 1"
_space_group_IT_number       1

loop_
  _space_group_symop_operation_xyz
  'x, y, z'

loop_
  _atom_site_type_symbol
  _atom_site_label
  _atom_site_symmetry_multiplicity
  _atom_site_fract_x
  _atom_site_fract_y
  _atom_site_fract_z
  _atom_site_occupancy
  U   U1        1.0  0.62565  0.14079  0.31598  1.0000
  U   U2        1.0  0.87435  0.14079  0.18402  1.0000
  U   U3        1.0  0.37435  0.85921  0.68402  1.0000
  U   U4        1.0  0.12565  0.85921  0.81598  1.0000
  O   O1        1.0  0.63842  0.23580  0.24223  1.0000
  O   O2        1.0  0.86158  0.23580  0.25777  1.0000
  O   O3        1.0  0.36158  0.76420  0.75777  1.0000
  O   O4        1.0  0.13842  0.76420  0.74223  1.0000
  O   O5        1.0  0.61120  0.04400  0.38909  1.0000
  O   O6        1.0  0.88880  0.04400  0.11091  1.0000
  O   O7        1.0  0.38880  0.95600  0.61091  1.0000
  O   O8        1.0  0.11120  0.95600  0.88909  1.0000
  O   O9        1.0  0.75992  0.23740  0.38505  1.0000
  O   O10       1.0  0.74008  0.23740  0.11495  1.0000
  O   O11       1.0  0.24008  0.76260  0.61495  1.0000
  O   O12       1.0  0.25992  0.76260  0.88505  1.0000
  O   O13       1.0  0.75666  0.98830  0.33767  1.0000
  O   O14       1.0  0.74334  0.98830  0.16233  1.0000
  O   O15       1.0  0.24334  0.01170  0.66233  1.0000
  O   O16       1.0  0.25666  0.01170  0.83767  1.0000
  O   O17       1.0  0.10935  0.14300  0.76169  1.0000
  O   O18       1.0  0.39065  0.14300  0.73831  1.0000
  O   O19       1.0  0.89065  0.85700  0.23831  1.0000
  O   O20       1.0  0.60935  0.85700  0.26169  1.0000
  O   O21       1.0  0.99777  0.99610  0.74549  1.0000
  O   O22       1.0  0.50223  0.99610  0.75451  1.0000
  O   O23       1.0  0.00223  0.00390  0.25451  1.0000
  O   O24       1.0  0.49777  0.00390  0.24549  1.0000
  O   O25       1.0  0.50580  0.31930  0.30698  1.0000
  O   O26       1.0  0.99420  0.31930  0.19302  1.0000
  O   O27       1.0  0.49420  0.68070  0.69302  1.0000
  O   O28       1.0  0.00580  0.68070  0.80698  1.0000
  O   O29       1.0  0.62501  0.42520  0.36409  1.0000
  O   O30       1.0  0.87499  0.42520  0.13591  1.0000
  O   O31       1.0  0.37499  0.57480  0.63591  1.0000
  O   O32       1.0  0.12501  0.57480  0.86409  1.0000
  C   C1        1.0  0.91240  0.14220  0.48280  1.0000
  C   C2        1.0  0.58760  0.14220  0.01720  1.0000
  C   C3        1.0  0.08760  0.85780  0.51720  1.0000
  C   C4        1.0  0.41240  0.85780  0.98280  1.0000
  C   C5        1.0  0.87600  0.06610  0.52750  1.0000
  C   C6        1.0  0.62400  0.06610  0.97250  1.0000
  C   C7        1.0  0.12400  0.93390  0.47250  1.0000
  C   C8        1.0  0.37600  0.93390  0.02750  1.0000
  H   H1        1.0  0.83520  0.98230  0.51090  1.0000
  H   H2        1.0  0.66480  0.98230  0.98910  1.0000
  H   H3        1.0  0.16480  0.01770  0.48910  1.0000
  H   H4        1.0  0.33520  0.01770  0.01090  1.0000
  C   C9        1.0  0.89830  0.11040  0.59550  1.0000
  C   C10       1.0  0.60170  0.11040  0.90450  1.0000
  C   C11       1.0  0.10170  0.88960  0.40450  1.0000
  C   C12       1.0  0.39830  0.88960  0.09550  1.0000
  H   H5        1.0  0.87260  0.05710  0.62500  1.0000
  H   H6        1.0  0.62740  0.05710  0.87500  1.0000
  H   H7        1.0  0.12740  0.94290  0.37500  1.0000
  H   H8        1.0  0.37260  0.94290  0.12500  1.0000
  C   C13       1.0  0.95790  0.23200  0.62100  1.0000
  C   C14       1.0  0.54210  0.23200  0.87900  1.0000
  C   C15       1.0  0.04210  0.76800  0.37900  1.0000
  C   C16       1.0  0.45790  0.76800  0.12100  1.0000
  C   C17       1.0  0.99330  0.31050  0.57690  1.0000
  C   C18       1.0  0.50670  0.31050  0.92310  1.0000
  C   C19       1.0  0.00670  0.68950  0.42310  1.0000
  C   C20       1.0  0.49330  0.68950  0.07690  1.0000
  H   H9        1.0  0.03370  0.39510  0.59360  1.0000
  H   H10       1.0  0.46630  0.39510  0.90640  1.0000
  H   H11       1.0  0.96630  0.60490  0.40640  1.0000
  H   H12       1.0  0.53370  0.60490  0.09360  1.0000
  C   C21       1.0  0.97060  0.26700  0.50810  1.0000
  C   C22       1.0  0.52940  0.26700  0.99190  1.0000
  C   C23       1.0  0.02940  0.73300  0.49190  1.0000
  C   C24       1.0  0.47060  0.73300  0.00810  1.0000
  H   H13       1.0  0.99510  0.32310  0.47840  1.0000
  H   H14       1.0  0.50490  0.32310  0.02160  1.0000
  H   H15       1.0  0.00490  0.67690  0.52160  1.0000
  H   H16       1.0  0.49510  0.67690  0.97840  1.0000
  C   C25       1.0  0.88770  0.09060  0.40890  1.0000
  C   C26       1.0  0.61230  0.09060  0.09110  1.0000
  C   C27       1.0  0.11230  0.90940  0.59110  1.0000
  C   C28       1.0  0.38770  0.90940  0.90890  1.0000
  H   H17       1.0  0.90450  0.97200  0.40550  1.0000
  H   H18       1.0  0.59550  0.97200  0.09450  1.0000
  H   H19       1.0  0.09550  0.02800  0.59450  1.0000
  H   H20       1.0  0.40450  0.02800  0.90550  1.0000
  H   H21       1.0  0.91680  0.16260  0.38440  1.0000
  H   H22       1.0  0.58320  0.16260  0.11560  1.0000
  H   H23       1.0  0.08320  0.83740  0.61560  1.0000
  H   H24       1.0  0.41680  0.83740  0.88440  1.0000
  C   C29       1.0  0.79590  0.10660  0.37520  1.0000
  C   C30       1.0  0.70410  0.10660  0.12480  1.0000
  C   C31       1.0  0.20410  0.89340  0.62480  1.0000
  C   C32       1.0  0.29590  0.89340  0.87520  1.0000
  C   C33       1.0  0.98460  0.27380  0.69660  1.0000
  C   C34       1.0  0.51540  0.27380  0.80340  1.0000
  C   C35       1.0  0.01540  0.72620  0.30340  1.0000
  C   C36       1.0  0.48460  0.72620  0.19660  1.0000
  H   H25       1.0  0.01860  0.37740  0.70480  1.0000
  H   H26       1.0  0.48140  0.37740  0.79520  1.0000
  H   H27       1.0  0.98140  0.62260  0.29520  1.0000
  H   H28       1.0  0.51860  0.62260  0.20480  1.0000
  H   H29       1.0  0.93590  0.29560  0.71170  1.0000
  H   H30       1.0  0.56410  0.29560  0.78830  1.0000
  H   H31       1.0  0.06410  0.70440  0.28830  1.0000
  H   H32       1.0  0.43590  0.70440  0.21170  1.0000
  C   C37       1.0  0.03270  0.12980  0.73670  1.0000
  C   C38       1.0  0.46730  0.12980  0.76330  1.0000
  C   C39       1.0  0.96730  0.87020  0.26330  1.0000
  C   C40       1.0  0.53270  0.87020  0.23670  1.0000
  C   C41       1.0  0.50210  0.54630  0.43490  1.0000
  C   C42       1.0  0.99790  0.54630  0.06510  1.0000
  C   C43       1.0  0.49790  0.45370  0.56510  1.0000
  C   C44       1.0  0.00210  0.45370  0.93490  1.0000
  C   C45       1.0  0.43930  0.44410  0.44340  1.0000
  C   C46       1.0  0.06070  0.44410  0.05660  1.0000
  C   C47       1.0  0.56070  0.55590  0.55660  1.0000
  C   C48       1.0  0.93930  0.55590  0.94340  1.0000
  H   H33       1.0  0.39810  0.40430  0.40450  1.0000
  H   H34       1.0  0.10190  0.40430  0.09550  1.0000
  H   H35       1.0  0.60190  0.59570  0.59550  1.0000
  H   H36       1.0  0.89810  0.59570  0.90450  1.0000
  C   C49       1.0  0.43650  0.40040  0.50760  1.0000
  C   C50       1.0  0.06350  0.40040  0.99240  1.0000
  C   C51       1.0  0.56350  0.59960  0.49240  1.0000
  C   C52       1.0  0.93650  0.59960  0.00760  1.0000
  H   H37       1.0  0.39260  0.33380  0.51260  1.0000
  H   H38       1.0  0.10740  0.33380  0.98740  1.0000
  H   H39       1.0  0.60740  0.66620  0.48740  1.0000
  H   H40       1.0  0.89260  0.66620  0.01260  1.0000
  C   C53       1.0  0.50730  0.58620  0.36450  1.0000
  C   C54       1.0  0.99270  0.58620  0.13550  1.0000
  C   C55       1.0  0.49270  0.41380  0.63550  1.0000
  C   C56       1.0  0.00730  0.41380  0.86450  1.0000
  H   H41       1.0  0.45200  0.60360  0.33250  1.0000
  H   H42       1.0  0.04800  0.60360  0.16750  1.0000
  H   H43       1.0  0.54800  0.39640  0.66750  1.0000
  H   H44       1.0  0.95200  0.39640  0.83250  1.0000
  H   H45       1.0  0.53970  0.69020  0.36550  1.0000
  H   H46       1.0  0.96030  0.69020  0.13450  1.0000
  H   H47       1.0  0.46030  0.30980  0.63450  1.0000
  H   H48       1.0  0.03970  0.30980  0.86550  1.0000
  C   C57       1.0  0.54800  0.43710  0.34260  1.0000
  C   C58       1.0  0.95200  0.43710  0.15740  1.0000
  C   C59       1.0  0.45200  0.56290  0.65740  1.0000
  C   C60       1.0  0.04800  0.56290  0.84260  1.0000
