data_image0
_chemical_formula_structural       U8O64C16H8C8H8C8H16C24H8C8H8C8H16C24H8C8H8C8H16C8
_chemical_formula_sum              "U8 O64 C120 H96"
_cell_length_a       19.5684
_cell_length_b       21.408
_cell_length_c       13.9395
_cell_angle_alpha    90
_cell_angle_beta     90
_cell_angle_gamma    90

_space_group_name_H-M_alt    "P 1"
_space_group_IT_number       1

loop_
  _space_group_symop_operation_xyz
  'x, y, z'

loop_
  _atom_site_type_symbol
  _atom_site_label
  _atom_site_symmetry_multiplicity
  _atom_site_fract_x
  _atom_site_fract_y
  _atom_site_fract_z
  _atom_site_occupancy
  U   U1        1.0  0.75769  0.67938  0.49188  1.0000
  U   U2        1.0  0.24231  0.32062  0.99188  1.0000
  U   U3        1.0  0.24231  0.67938  0.00812  1.0000
  U   U4        1.0  0.75769  0.32062  0.50812  1.0000
  U   U5        1.0  0.25769  0.17938  0.49188  1.0000
  U   U6        1.0  0.74231  0.82062  0.99188  1.0000
  U   U7        1.0  0.74231  0.17938  0.00812  1.0000
  U   U8        1.0  0.25769  0.82062  0.50812  1.0000
  O   O1        1.0  0.73600  0.59910  0.49020  1.0000
  O   O2        1.0  0.26400  0.40090  0.99020  1.0000
  O   O3        1.0  0.26400  0.59910  0.00980  1.0000
  O   O4        1.0  0.73600  0.40090  0.50980  1.0000
  O   O5        1.0  0.23600  0.09910  0.49020  1.0000
  O   O6        1.0  0.76400  0.90090  0.99020  1.0000
  O   O7        1.0  0.76400  0.09910  0.00980  1.0000
  O   O8        1.0  0.23600  0.90090  0.50980  1.0000
  O   O9        1.0  0.77970  0.75970  0.49300  1.0000
  O   O10       1.0  0.22030  0.24030  0.99300  1.0000
  O   O11       1.0  0.22030  0.75970  0.00700  1.0000
  O   O12       1.0  0.77970  0.24030  0.50700  1.0000
  O   O13       1.0  0.27970  0.25970  0.49300  1.0000
  O   O14       1.0  0.72030  0.74030  0.99300  1.0000
  O   O15       1.0  0.72030  0.25970  0.00700  1.0000
  O   O16       1.0  0.27970  0.74030  0.50700  1.0000
  O   O17       1.0  0.86670  0.65460  0.57190  1.0000
  O   O18       1.0  0.13330  0.34540  0.07190  1.0000
  O   O19       1.0  0.13330  0.65460  0.92810  1.0000
  O   O20       1.0  0.86670  0.34540  0.42810  1.0000
  O   O21       1.0  0.36670  0.15460  0.57190  1.0000
  O   O22       1.0  0.63330  0.84540  0.07190  1.0000
  O   O23       1.0  0.63330  0.15460  0.92810  1.0000
  O   O24       1.0  0.36670  0.84540  0.42810  1.0000
  O   O25       1.0  0.86920  0.65980  0.41390  1.0000
  O   O26       1.0  0.13080  0.34020  0.91390  1.0000
  O   O27       1.0  0.13080  0.65980  0.08610  1.0000
  O   O28       1.0  0.86920  0.34020  0.58610  1.0000
  O   O29       1.0  0.36920  0.15980  0.41390  1.0000
  O   O30       1.0  0.63080  0.84020  0.91390  1.0000
  O   O31       1.0  0.63080  0.15980  0.08610  1.0000
  O   O32       1.0  0.36920  0.84020  0.58610  1.0000
  O   O33       1.0  0.74930  0.68270  0.31360  1.0000
  O   O34       1.0  0.25070  0.31730  0.81360  1.0000
  O   O35       1.0  0.25070  0.68270  0.18640  1.0000
  O   O36       1.0  0.74930  0.31730  0.68640  1.0000
  O   O37       1.0  0.24930  0.18270  0.31360  1.0000
  O   O38       1.0  0.75070  0.81730  0.81360  1.0000
  O   O39       1.0  0.75070  0.18270  0.18640  1.0000
  O   O40       1.0  0.24930  0.81730  0.68640  1.0000
  O   O41       1.0  0.65490  0.69960  0.39710  1.0000
  O   O42       1.0  0.34510  0.30040  0.89710  1.0000
  O   O43       1.0  0.34510  0.69960  0.10290  1.0000
  O   O44       1.0  0.65490  0.30040  0.60290  1.0000
  O   O45       1.0  0.15490  0.19960  0.39710  1.0000
  O   O46       1.0  0.84510  0.80040  0.89710  1.0000
  O   O47       1.0  0.84510  0.19960  0.10290  1.0000
  O   O48       1.0  0.15490  0.80040  0.60290  1.0000
  O   O49       1.0  0.65500  0.70050  0.59010  1.0000
  O   O50       1.0  0.34500  0.29950  0.09010  1.0000
  O   O51       1.0  0.34500  0.70050  0.90990  1.0000
  O   O52       1.0  0.65500  0.29950  0.40990  1.0000
  O   O53       1.0  0.15500  0.20050  0.59010  1.0000
  O   O54       1.0  0.84500  0.79950  0.09010  1.0000
  O   O55       1.0  0.84500  0.20050  0.90990  1.0000
  O   O56       1.0  0.15500  0.79950  0.40990  1.0000
  O   O57       1.0  0.74830  0.67800  0.66810  1.0000
  O   O58       1.0  0.25170  0.32200  0.16810  1.0000
  O   O59       1.0  0.25170  0.67800  0.83190  1.0000
  O   O60       1.0  0.74830  0.32200  0.33190  1.0000
  O   O61       1.0  0.24830  0.17800  0.66810  1.0000
  O   O62       1.0  0.75170  0.82200  0.16810  1.0000
  O   O63       1.0  0.75170  0.17800  0.83190  1.0000
  O   O64       1.0  0.24830  0.82200  0.33190  1.0000
  C   C1        1.0  0.98230  0.56540  0.50020  1.0000
  C   C2        1.0  0.01770  0.43460  0.00020  1.0000
  C   C3        1.0  0.01770  0.56540  0.99980  1.0000
  C   C4        1.0  0.98230  0.43460  0.49980  1.0000
  C   C5        1.0  0.48230  0.06540  0.50020  1.0000
  C   C6        1.0  0.51770  0.93460  0.00020  1.0000
  C   C7        1.0  0.51770  0.06540  0.99980  1.0000
  C   C8        1.0  0.48230  0.93460  0.49980  1.0000
  C   C9        1.0  0.97910  0.53490  0.58380  1.0000
  C   C10       1.0  0.02090  0.46510  0.08380  1.0000
  C   C11       1.0  0.02090  0.53490  0.91620  1.0000
  C   C12       1.0  0.97910  0.46510  0.41620  1.0000
  C   C13       1.0  0.47910  0.03490  0.58380  1.0000
  C   C14       1.0  0.52090  0.96510  0.08380  1.0000
  C   C15       1.0  0.52090  0.03490  0.91620  1.0000
  C   C16       1.0  0.47910  0.96510  0.41620  1.0000
  H   H1        1.0  0.97448  0.55758  0.64197  1.0000
  H   H2        1.0  0.02552  0.44242  0.14197  1.0000
  H   H3        1.0  0.02552  0.55758  0.85803  1.0000
  H   H4        1.0  0.97448  0.44242  0.35803  1.0000
  H   H5        1.0  0.47448  0.05758  0.64197  1.0000
  H   H6        1.0  0.52552  0.94242  0.14197  1.0000
  H   H7        1.0  0.52552  0.05758  0.85803  1.0000
  H   H8        1.0  0.47448  0.94242  0.35803  1.0000
  C   C17       1.0  0.98280  0.46710  0.58590  1.0000
  C   C18       1.0  0.01720  0.53290  0.08590  1.0000
  C   C19       1.0  0.01720  0.46710  0.91410  1.0000
  C   C20       1.0  0.98280  0.53290  0.41410  1.0000
  C   C21       1.0  0.48280  0.96710  0.58590  1.0000
  C   C22       1.0  0.51720  0.03290  0.08590  1.0000
  C   C23       1.0  0.51720  0.96710  0.91410  1.0000
  C   C24       1.0  0.48280  0.03290  0.41410  1.0000
  H   H9        1.0  0.98535  0.44545  0.64526  1.0000
  H   H10       1.0  0.01465  0.55455  0.14526  1.0000
  H   H11       1.0  0.01465  0.44545  0.85474  1.0000
  H   H12       1.0  0.98535  0.55455  0.35474  1.0000
  H   H13       1.0  0.48535  0.94545  0.64526  1.0000
  H   H14       1.0  0.51465  0.05455  0.14526  1.0000
  H   H15       1.0  0.51465  0.94545  0.85474  1.0000
  H   H16       1.0  0.48535  0.05455  0.35474  1.0000
  C   C25       1.0  0.97500  0.63680  0.49760  1.0000
  C   C26       1.0  0.02500  0.36320  0.99760  1.0000
  C   C27       1.0  0.02500  0.63680  0.00240  1.0000
  C   C28       1.0  0.97500  0.36320  0.50240  1.0000
  C   C29       1.0  0.47500  0.13680  0.49760  1.0000
  C   C30       1.0  0.52500  0.86320  0.99760  1.0000
  C   C31       1.0  0.52500  0.13680  0.00240  1.0000
  C   C32       1.0  0.47500  0.86320  0.50240  1.0000
  H   H17       1.0  0.99534  0.65570  0.55575  1.0000
  H   H18       1.0  0.00466  0.34430  0.05575  1.0000
  H   H19       1.0  0.00466  0.65570  0.94425  1.0000
  H   H20       1.0  0.99534  0.34430  0.44425  1.0000
  H   H21       1.0  0.49534  0.15570  0.55575  1.0000
  H   H22       1.0  0.50466  0.84430  0.05575  1.0000
  H   H23       1.0  0.50466  0.15570  0.94425  1.0000
  H   H24       1.0  0.49534  0.84430  0.44425  1.0000
  H   H25       1.0  0.99840  0.65414  0.44048  1.0000
  H   H26       1.0  0.00160  0.34586  0.94048  1.0000
  H   H27       1.0  0.00160  0.65414  0.05952  1.0000
  H   H28       1.0  0.99840  0.34586  0.55952  1.0000
  H   H29       1.0  0.49840  0.15414  0.44048  1.0000
  H   H30       1.0  0.50160  0.84586  0.94048  1.0000
  H   H31       1.0  0.50160  0.15414  0.05952  1.0000
  H   H32       1.0  0.49840  0.84586  0.55952  1.0000
  C   C33       1.0  0.89960  0.65020  0.49320  1.0000
  C   C34       1.0  0.10040  0.34980  0.99320  1.0000
  C   C35       1.0  0.10040  0.65020  0.00680  1.0000
  C   C36       1.0  0.89960  0.34980  0.50680  1.0000
  C   C37       1.0  0.39960  0.15020  0.49320  1.0000
  C   C38       1.0  0.60040  0.84980  0.99320  1.0000
  C   C39       1.0  0.60040  0.15020  0.00680  1.0000
  C   C40       1.0  0.39960  0.84980  0.50680  1.0000
  C   C41       1.0  0.57170  0.71210  0.23770  1.0000
  C   C42       1.0  0.42830  0.28790  0.73770  1.0000
  C   C43       1.0  0.42830  0.71210  0.26230  1.0000
  C   C44       1.0  0.57170  0.28790  0.76230  1.0000
  C   C45       1.0  0.07170  0.21210  0.23770  1.0000
  C   C46       1.0  0.92830  0.78790  0.73770  1.0000
  C   C47       1.0  0.92830  0.21210  0.26230  1.0000
  C   C48       1.0  0.07170  0.78790  0.76230  1.0000
  C   C49       1.0  0.53380  0.76660  0.24130  1.0000
  C   C50       1.0  0.46620  0.23340  0.74130  1.0000
  C   C51       1.0  0.46620  0.76660  0.25870  1.0000
  C   C52       1.0  0.53380  0.23340  0.75870  1.0000
  C   C53       1.0  0.03380  0.26660  0.24130  1.0000
  C   C54       1.0  0.96620  0.73340  0.74130  1.0000
  C   C55       1.0  0.96620  0.26660  0.25870  1.0000
  C   C56       1.0  0.03380  0.73340  0.75870  1.0000
  H   H33       1.0  0.55623  0.80539  0.23101  1.0000
  H   H34       1.0  0.44377  0.19461  0.73101  1.0000
  H   H35       1.0  0.44377  0.80539  0.26899  1.0000
  H   H36       1.0  0.55623  0.19461  0.76899  1.0000
  H   H37       1.0  0.05623  0.30539  0.23101  1.0000
  H   H38       1.0  0.94377  0.69461  0.73101  1.0000
  H   H39       1.0  0.94377  0.30539  0.26899  1.0000
  H   H40       1.0  0.05623  0.69461  0.76899  1.0000
  C   C57       1.0  0.53460  0.65770  0.24510  1.0000
  C   C58       1.0  0.46540  0.34230  0.74510  1.0000
  C   C59       1.0  0.46540  0.65770  0.25490  1.0000
  C   C60       1.0  0.53460  0.34230  0.75490  1.0000
  C   C61       1.0  0.03460  0.15770  0.24510  1.0000
  C   C62       1.0  0.96540  0.84230  0.74510  1.0000
  C   C63       1.0  0.96540  0.15770  0.25490  1.0000
  C   C64       1.0  0.03460  0.84230  0.75490  1.0000
  H   H41       1.0  0.55799  0.61890  0.24320  1.0000
  H   H42       1.0  0.44201  0.38110  0.74320  1.0000
  H   H43       1.0  0.44201  0.61890  0.25680  1.0000
  H   H44       1.0  0.55799  0.38110  0.75680  1.0000
  H   H45       1.0  0.05799  0.11890  0.24320  1.0000
  H   H46       1.0  0.94201  0.88110  0.74320  1.0000
  H   H47       1.0  0.94201  0.11890  0.25680  1.0000
  H   H48       1.0  0.05799  0.88110  0.75680  1.0000
  C   C65       1.0  0.64830  0.70980  0.22520  1.0000
  C   C66       1.0  0.35170  0.29020  0.72520  1.0000
  C   C67       1.0  0.35170  0.70980  0.27480  1.0000
  C   C68       1.0  0.64830  0.29020  0.77480  1.0000
  C   C69       1.0  0.14830  0.20980  0.22520  1.0000
  C   C70       1.0  0.85170  0.79020  0.72520  1.0000
  C   C71       1.0  0.85170  0.20980  0.27480  1.0000
  C   C72       1.0  0.14830  0.79020  0.77480  1.0000
  H   H49       1.0  0.65963  0.67724  0.17738  1.0000
  H   H50       1.0  0.34037  0.32276  0.67738  1.0000
  H   H51       1.0  0.34037  0.67724  0.32262  1.0000
  H   H52       1.0  0.65963  0.32276  0.82262  1.0000
  H   H53       1.0  0.15963  0.17724  0.17738  1.0000
  H   H54       1.0  0.84037  0.82276  0.67738  1.0000
  H   H55       1.0  0.84037  0.17724  0.32262  1.0000
  H   H56       1.0  0.15963  0.82276  0.82262  1.0000
  H   H57       1.0  0.66405  0.75041  0.19936  1.0000
  H   H58       1.0  0.33595  0.24959  0.69936  1.0000
  H   H59       1.0  0.33595  0.75041  0.30064  1.0000
  H   H60       1.0  0.66405  0.24959  0.80064  1.0000
  H   H61       1.0  0.16405  0.25041  0.19936  1.0000
  H   H62       1.0  0.83595  0.74959  0.69936  1.0000
  H   H63       1.0  0.83595  0.25041  0.30064  1.0000
  H   H64       1.0  0.16405  0.74959  0.80064  1.0000
  C   C73       1.0  0.68660  0.69630  0.31600  1.0000
  C   C74       1.0  0.31340  0.30370  0.81600  1.0000
  C   C75       1.0  0.31340  0.69630  0.18400  1.0000
  C   C76       1.0  0.68660  0.30370  0.68400  1.0000
  C   C77       1.0  0.18660  0.19630  0.31600  1.0000
  C   C78       1.0  0.81340  0.80370  0.81600  1.0000
  C   C79       1.0  0.81340  0.19630  0.18400  1.0000
  C   C80       1.0  0.18660  0.80370  0.68400  1.0000
  C   C81       1.0  0.57240  0.69250  0.75690  1.0000
  C   C82       1.0  0.42760  0.30750  0.25690  1.0000
  C   C83       1.0  0.42760  0.69250  0.74310  1.0000
  C   C84       1.0  0.57240  0.30750  0.24310  1.0000
  C   C85       1.0  0.07240  0.19250  0.75690  1.0000
  C   C86       1.0  0.92760  0.80750  0.25690  1.0000
  C   C87       1.0  0.92760  0.19250  0.74310  1.0000
  C   C88       1.0  0.07240  0.80750  0.24310  1.0000
  C   C89       1.0  0.53590  0.74660  0.75410  1.0000
  C   C90       1.0  0.46410  0.25340  0.25410  1.0000
  C   C91       1.0  0.46410  0.74660  0.74590  1.0000
  C   C92       1.0  0.53590  0.25340  0.24590  1.0000
  C   C93       1.0  0.03590  0.24660  0.75410  1.0000
  C   C94       1.0  0.96410  0.75340  0.25410  1.0000
  C   C95       1.0  0.96410  0.24660  0.74590  1.0000
  C   C96       1.0  0.03590  0.75340  0.24590  1.0000
  H   H65       1.0  0.55938  0.78536  0.75773  1.0000
  H   H66       1.0  0.44062  0.21464  0.25773  1.0000
  H   H67       1.0  0.44062  0.78536  0.74227  1.0000
  H   H68       1.0  0.55938  0.21464  0.24227  1.0000
  H   H69       1.0  0.05938  0.28536  0.75773  1.0000
  H   H70       1.0  0.94062  0.71464  0.25773  1.0000
  H   H71       1.0  0.94062  0.28536  0.74227  1.0000
  H   H72       1.0  0.05938  0.71464  0.24227  1.0000
  C   C97       1.0  0.53530  0.63710  0.75300  1.0000
  C   C98       1.0  0.46470  0.36290  0.25300  1.0000
  C   C99       1.0  0.46470  0.63710  0.74700  1.0000
  C   C100      1.0  0.53530  0.36290  0.24700  1.0000
  C   C101      1.0  0.03530  0.13710  0.75300  1.0000
  C   C102      1.0  0.96470  0.86290  0.25300  1.0000
  C   C103      1.0  0.96470  0.13710  0.74700  1.0000
  C   C104      1.0  0.03530  0.86290  0.24700  1.0000
  H   H73       1.0  0.55906  0.59835  0.75439  1.0000
  H   H74       1.0  0.44094  0.40165  0.25439  1.0000
  H   H75       1.0  0.44094  0.59835  0.74561  1.0000
  H   H76       1.0  0.55906  0.40165  0.24561  1.0000
  H   H77       1.0  0.05906  0.09835  0.75439  1.0000
  H   H78       1.0  0.94094  0.90165  0.25439  1.0000
  H   H79       1.0  0.94094  0.09835  0.74561  1.0000
  H   H80       1.0  0.05906  0.90165  0.24561  1.0000
  C   C105      1.0  0.64780  0.69240  0.76350  1.0000
  C   C106      1.0  0.35220  0.30760  0.26350  1.0000
  C   C107      1.0  0.35220  0.69240  0.73650  1.0000
  C   C108      1.0  0.64780  0.30760  0.23650  1.0000
  C   C109      1.0  0.14780  0.19240  0.76350  1.0000
  C   C110      1.0  0.85220  0.80760  0.26350  1.0000
  C   C111      1.0  0.85220  0.19240  0.73650  1.0000
  C   C112      1.0  0.14780  0.80760  0.23650  1.0000
  H   H81       1.0  0.66220  0.65598  0.80237  1.0000
  H   H82       1.0  0.33780  0.34402  0.30237  1.0000
  H   H83       1.0  0.33780  0.65598  0.69763  1.0000
  H   H84       1.0  0.66220  0.34402  0.19763  1.0000
  H   H85       1.0  0.16220  0.15598  0.80237  1.0000
  H   H86       1.0  0.83780  0.84402  0.30237  1.0000
  H   H87       1.0  0.83780  0.15598  0.69763  1.0000
  H   H88       1.0  0.16220  0.84402  0.19763  1.0000
  H   H89       1.0  0.66252  0.73056  0.79788  1.0000
  H   H90       1.0  0.33748  0.26944  0.29788  1.0000
  H   H91       1.0  0.33748  0.73056  0.70212  1.0000
  H   H92       1.0  0.66252  0.26944  0.20212  1.0000
  H   H93       1.0  0.16252  0.23056  0.79788  1.0000
  H   H94       1.0  0.83748  0.76944  0.29788  1.0000
  H   H95       1.0  0.83748  0.23056  0.70212  1.0000
  H   H96       1.0  0.16252  0.76944  0.20212  1.0000
  C   C113      1.0  0.68450  0.68980  0.66670  1.0000
  C   C114      1.0  0.31550  0.31020  0.16670  1.0000
  C   C115      1.0  0.31550  0.68980  0.83330  1.0000
  C   C116      1.0  0.68450  0.31020  0.33330  1.0000
  C   C117      1.0  0.18450  0.18980  0.66670  1.0000
  C   C118      1.0  0.81550  0.81020  0.16670  1.0000
  C   C119      1.0  0.81550  0.18980  0.83330  1.0000
  C   C120      1.0  0.18450  0.81020  0.33330  1.0000
