data_image0
_chemical_formula_structural       Co4O8Co8O80C16O8C8H8C16H8C40H8C8H8C32H8C8H8C16
_chemical_formula_sum              "Co12 O96 C144 H48"
_cell_length_a       25.9825
_cell_length_b       16.3719
_cell_length_c       16.958
_cell_angle_alpha    90
_cell_angle_beta     116.889
_cell_angle_gamma    90

_space_group_name_H-M_alt    "P 1"
_space_group_IT_number       1

loop_
  _space_group_symop_operation_xyz
  'x, y, z'

loop_
  _atom_site_type_symbol
  _atom_site_label
  _atom_site_symmetry_multiplicity
  _atom_site_fract_x
  _atom_site_fract_y
  _atom_site_fract_z
  _atom_site_occupancy
  Co  Co1       1.0  0.00000  0.65699  0.25000  1.0000
  Co  Co2       1.0  0.50000  0.15699  0.25000  1.0000
  Co  Co3       1.0  0.00000  0.34301  0.75000  1.0000
  Co  Co4       1.0  0.50000  0.84301  0.75000  1.0000
  O   O1        1.0  0.02137  0.65340  0.38320  1.0000
  O   O2        1.0  0.97863  0.65340  0.11680  1.0000
  O   O3        1.0  0.52137  0.15340  0.38320  1.0000
  O   O4        1.0  0.47863  0.15340  0.11680  1.0000
  O   O5        1.0  0.97863  0.34660  0.61680  1.0000
  O   O6        1.0  0.02137  0.34660  0.88320  1.0000
  O   O7        1.0  0.47863  0.84660  0.61680  1.0000
  O   O8        1.0  0.52137  0.84660  0.88320  1.0000
  Co  Co5       1.0  0.13734  0.59556  0.38258  1.0000
  Co  Co6       1.0  0.86266  0.59556  0.11742  1.0000
  Co  Co7       1.0  0.63734  0.09556  0.38258  1.0000
  Co  Co8       1.0  0.36266  0.09556  0.11742  1.0000
  Co  Co9       1.0  0.86266  0.40444  0.61742  1.0000
  Co  Co10      1.0  0.13734  0.40444  0.88258  1.0000
  Co  Co11      1.0  0.36266  0.90444  0.61742  1.0000
  Co  Co12      1.0  0.63734  0.90444  0.88258  1.0000
  O   O9        1.0  0.06348  0.43800  0.77360  1.0000
  O   O10       1.0  0.93652  0.43800  0.72640  1.0000
  O   O11       1.0  0.56348  0.93800  0.77360  1.0000
  O   O12       1.0  0.43652  0.93800  0.72640  1.0000
  O   O13       1.0  0.93652  0.56200  0.22640  1.0000
  O   O14       1.0  0.06348  0.56200  0.27360  1.0000
  O   O15       1.0  0.43652  0.06200  0.22640  1.0000
  O   O16       1.0  0.56348  0.06200  0.27360  1.0000
  O   O17       1.0  0.10840  0.60110  0.47330  1.0000
  O   O18       1.0  0.89160  0.60110  0.02670  1.0000
  O   O19       1.0  0.60840  0.10110  0.47330  1.0000
  O   O20       1.0  0.39160  0.10110  0.02670  1.0000
  O   O21       1.0  0.89160  0.39890  0.52670  1.0000
  O   O22       1.0  0.10840  0.39890  0.97330  1.0000
  O   O23       1.0  0.39160  0.89890  0.52670  1.0000
  O   O24       1.0  0.60840  0.89890  0.97330  1.0000
  O   O25       1.0  0.14696  0.71320  0.36410  1.0000
  O   O26       1.0  0.85304  0.71320  0.13590  1.0000
  O   O27       1.0  0.64696  0.21320  0.36410  1.0000
  O   O28       1.0  0.35304  0.21320  0.13590  1.0000
  O   O29       1.0  0.85304  0.28680  0.63590  1.0000
  O   O30       1.0  0.14696  0.28680  0.86410  1.0000
  O   O31       1.0  0.35304  0.78680  0.63590  1.0000
  O   O32       1.0  0.64696  0.78680  0.86410  1.0000
  O   O33       1.0  0.28138  0.92310  0.53930  1.0000
  O   O34       1.0  0.71862  0.92310  0.96070  1.0000
  O   O35       1.0  0.78138  0.42310  0.53930  1.0000
  O   O36       1.0  0.21862  0.42310  0.96070  1.0000
  O   O37       1.0  0.71862  0.07690  0.46070  1.0000
  O   O38       1.0  0.28138  0.07690  0.03930  1.0000
  O   O39       1.0  0.21862  0.57690  0.46070  1.0000
  O   O40       1.0  0.78138  0.57690  0.03930  1.0000
  O   O41       1.0  0.87492  0.56720  0.58430  1.0000
  O   O42       1.0  0.12508  0.56720  0.91570  1.0000
  O   O43       1.0  0.37492  0.06720  0.58430  1.0000
  O   O44       1.0  0.62508  0.06720  0.91570  1.0000
  O   O45       1.0  0.12508  0.43280  0.41570  1.0000
  O   O46       1.0  0.87492  0.43280  0.08430  1.0000
  O   O47       1.0  0.62508  0.93280  0.41570  1.0000
  O   O48       1.0  0.37492  0.93280  0.08430  1.0000
  O   O49       1.0  0.10000  0.12300  0.20930  1.0000
  O   O50       1.0  0.90000  0.12300  0.29070  1.0000
  O   O51       1.0  0.60000  0.62300  0.20930  1.0000
  O   O52       1.0  0.40000  0.62300  0.29070  1.0000
  O   O53       1.0  0.90000  0.87700  0.79070  1.0000
  O   O54       1.0  0.10000  0.87700  0.70930  1.0000
  O   O55       1.0  0.40000  0.37700  0.79070  1.0000
  O   O56       1.0  0.60000  0.37700  0.70930  1.0000
  O   O57       1.0  0.05753  0.74900  0.26250  1.0000
  O   O58       1.0  0.94247  0.74900  0.23750  1.0000
  O   O59       1.0  0.55753  0.24900  0.26250  1.0000
  O   O60       1.0  0.44247  0.24900  0.23750  1.0000
  O   O61       1.0  0.94247  0.25100  0.73750  1.0000
  O   O62       1.0  0.05753  0.25100  0.76250  1.0000
  O   O63       1.0  0.44247  0.75100  0.73750  1.0000
  O   O64       1.0  0.55753  0.75100  0.76250  1.0000
  O   O65       1.0  0.26587  0.05540  0.50100  1.0000
  O   O66       1.0  0.73413  0.05540  0.99900  1.0000
  O   O67       1.0  0.76587  0.55540  0.50100  1.0000
  O   O68       1.0  0.23413  0.55540  0.99900  1.0000
  O   O69       1.0  0.73413  0.94460  0.49900  1.0000
  O   O70       1.0  0.26587  0.94460  0.00100  1.0000
  O   O71       1.0  0.23413  0.44460  0.49900  1.0000
  O   O72       1.0  0.76587  0.44460  0.00100  1.0000
  O   O73       1.0  0.14008  0.47280  0.76000  1.0000
  O   O74       1.0  0.85992  0.47280  0.74000  1.0000
  O   O75       1.0  0.64008  0.97280  0.76000  1.0000
  O   O76       1.0  0.35992  0.97280  0.74000  1.0000
  O   O77       1.0  0.85992  0.52720  0.24000  1.0000
  O   O78       1.0  0.14008  0.52720  0.26000  1.0000
  O   O79       1.0  0.35992  0.02720  0.24000  1.0000
  O   O80       1.0  0.64008  0.02720  0.26000  1.0000
  O   O81       1.0  0.86420  0.63840  0.46540  1.0000
  O   O82       1.0  0.13580  0.63840  0.03460  1.0000
  O   O83       1.0  0.36420  0.13840  0.46540  1.0000
  O   O84       1.0  0.63580  0.13840  0.03460  1.0000
  O   O85       1.0  0.13580  0.36160  0.53460  1.0000
  O   O86       1.0  0.86420  0.36160  0.96540  1.0000
  O   O87       1.0  0.63580  0.86160  0.53460  1.0000
  O   O88       1.0  0.36420  0.86160  0.96540  1.0000
  C   C1        1.0  0.25170  0.98240  0.49080  1.0000
  C   C2        1.0  0.74830  0.98240  0.00920  1.0000
  C   C3        1.0  0.75170  0.48240  0.49080  1.0000
  C   C4        1.0  0.24830  0.48240  0.00920  1.0000
  C   C5        1.0  0.74830  0.01760  0.50920  1.0000
  C   C6        1.0  0.25170  0.01760  0.99080  1.0000
  C   C7        1.0  0.24830  0.51760  0.50920  1.0000
  C   C8        1.0  0.75170  0.51760  0.99080  1.0000
  C   C9        1.0  0.03590  0.59870  0.52050  1.0000
  C   C10       1.0  0.96410  0.59870  0.97950  1.0000
  C   C11       1.0  0.53590  0.09870  0.52050  1.0000
  C   C12       1.0  0.46410  0.09870  0.97950  1.0000
  C   C13       1.0  0.96410  0.40130  0.47950  1.0000
  C   C14       1.0  0.03590  0.40130  0.02050  1.0000
  C   C15       1.0  0.46410  0.90130  0.47950  1.0000
  C   C16       1.0  0.53590  0.90130  0.02050  1.0000
  O   O89       1.0  0.02950  0.03130  0.14780  1.0000
  O   O90       1.0  0.97050  0.03130  0.35220  1.0000
  O   O91       1.0  0.52950  0.53130  0.14780  1.0000
  O   O92       1.0  0.47050  0.53130  0.35220  1.0000
  O   O93       1.0  0.97050  0.96870  0.85220  1.0000
  O   O94       1.0  0.02950  0.96870  0.64780  1.0000
  O   O95       1.0  0.47050  0.46870  0.85220  1.0000
  O   O96       1.0  0.52950  0.46870  0.64780  1.0000
  C   C17       1.0  0.99290  0.54400  0.63540  1.0000
  C   C18       1.0  0.00710  0.54400  0.86460  1.0000
  C   C19       1.0  0.49290  0.04400  0.63540  1.0000
  C   C20       1.0  0.50710  0.04400  0.86460  1.0000
  C   C21       1.0  0.00710  0.45600  0.36460  1.0000
  C   C22       1.0  0.99290  0.45600  0.13540  1.0000
  C   C23       1.0  0.50710  0.95600  0.36460  1.0000
  C   C24       1.0  0.49290  0.95600  0.13540  1.0000
  H   H1        1.0  0.97840  0.52590  0.67350  1.0000
  H   H2        1.0  0.02160  0.52590  0.82650  1.0000
  H   H3        1.0  0.47840  0.02590  0.67350  1.0000
  H   H4        1.0  0.52160  0.02590  0.82650  1.0000
  H   H5        1.0  0.02160  0.47410  0.32650  1.0000
  H   H6        1.0  0.97840  0.47410  0.17350  1.0000
  H   H7        1.0  0.52160  0.97410  0.32650  1.0000
  H   H8        1.0  0.47840  0.97410  0.17350  1.0000
  C   C25       1.0  0.19570  0.95730  0.41410  1.0000
  C   C26       1.0  0.80430  0.95730  0.08590  1.0000
  C   C27       1.0  0.69570  0.45730  0.41410  1.0000
  C   C28       1.0  0.30430  0.45730  0.08590  1.0000
  C   C29       1.0  0.80430  0.04270  0.58590  1.0000
  C   C30       1.0  0.19570  0.04270  0.91410  1.0000
  C   C31       1.0  0.30430  0.54270  0.58590  1.0000
  C   C32       1.0  0.69570  0.54270  0.91410  1.0000
  C   C33       1.0  0.09210  0.91160  0.26890  1.0000
  C   C34       1.0  0.90790  0.91160  0.23110  1.0000
  C   C35       1.0  0.59210  0.41160  0.26890  1.0000
  C   C36       1.0  0.40790  0.41160  0.23110  1.0000
  C   C37       1.0  0.90790  0.08840  0.73110  1.0000
  C   C38       1.0  0.09210  0.08840  0.76890  1.0000
  C   C39       1.0  0.40790  0.58840  0.73110  1.0000
  C   C40       1.0  0.59210  0.58840  0.76890  1.0000
  H   H9        1.0  0.05670  0.89740  0.22260  1.0000
  H   H10       1.0  0.94330  0.89740  0.27740  1.0000
  H   H11       1.0  0.55670  0.39740  0.22260  1.0000
  H   H12       1.0  0.44330  0.39740  0.27740  1.0000
  H   H13       1.0  0.94330  0.10260  0.77740  1.0000
  H   H14       1.0  0.05670  0.10260  0.72260  1.0000
  H   H15       1.0  0.44330  0.60260  0.77740  1.0000
  H   H16       1.0  0.55670  0.60260  0.72260  1.0000
  C   C41       1.0  0.05790  0.61960  0.45530  1.0000
  C   C42       1.0  0.94210  0.61960  0.04470  1.0000
  C   C43       1.0  0.55790  0.11960  0.45530  1.0000
  C   C44       1.0  0.44210  0.11960  0.04470  1.0000
  C   C45       1.0  0.94210  0.38040  0.54470  1.0000
  C   C46       1.0  0.05790  0.38040  0.95530  1.0000
  C   C47       1.0  0.44210  0.88040  0.54470  1.0000
  C   C48       1.0  0.55790  0.88040  0.95530  1.0000
  C   C49       1.0  0.89400  0.59980  0.53060  1.0000
  C   C50       1.0  0.10600  0.59980  0.96940  1.0000
  C   C51       1.0  0.39400  0.09980  0.53060  1.0000
  C   C52       1.0  0.60600  0.09980  0.96940  1.0000
  C   C53       1.0  0.10600  0.40020  0.46940  1.0000
  C   C54       1.0  0.89400  0.40020  0.03060  1.0000
  C   C55       1.0  0.60600  0.90020  0.46940  1.0000
  C   C56       1.0  0.39400  0.90020  0.03060  1.0000
  C   C57       1.0  0.95730  0.58610  0.55900  1.0000
  C   C58       1.0  0.04270  0.58610  0.94100  1.0000
  C   C59       1.0  0.45730  0.08610  0.55900  1.0000
  C   C60       1.0  0.54270  0.08610  0.94100  1.0000
  C   C61       1.0  0.04270  0.41390  0.44100  1.0000
  C   C62       1.0  0.95730  0.41390  0.05900  1.0000
  C   C63       1.0  0.54270  0.91390  0.44100  1.0000
  C   C64       1.0  0.45730  0.91390  0.05900  1.0000
  C   C65       1.0  0.10790  0.76460  0.31710  1.0000
  C   C66       1.0  0.89210  0.76460  0.18290  1.0000
  C   C67       1.0  0.60790  0.26460  0.31710  1.0000
  C   C68       1.0  0.39210  0.26460  0.18290  1.0000
  C   C69       1.0  0.89210  0.23540  0.68290  1.0000
  C   C70       1.0  0.10790  0.23540  0.81710  1.0000
  C   C71       1.0  0.39210  0.73540  0.68290  1.0000
  C   C72       1.0  0.60790  0.73540  0.81710  1.0000
  C   C73       1.0  0.97930  0.61210  0.50240  1.0000
  C   C74       1.0  0.02070  0.61210  0.99760  1.0000
  C   C75       1.0  0.47930  0.11210  0.50240  1.0000
  C   C76       1.0  0.52070  0.11210  0.99760  1.0000
  C   C77       1.0  0.02070  0.38790  0.49760  1.0000
  C   C78       1.0  0.97930  0.38790  0.00240  1.0000
  C   C79       1.0  0.52070  0.88790  0.49760  1.0000
  C   C80       1.0  0.47930  0.88790  0.00240  1.0000
  H   H17       1.0  0.95510  0.63940  0.45070  1.0000
  H   H18       1.0  0.04490  0.63940  0.04930  1.0000
  H   H19       1.0  0.45510  0.13940  0.45070  1.0000
  H   H20       1.0  0.54490  0.13940  0.04930  1.0000
  H   H21       1.0  0.04490  0.36060  0.54930  1.0000
  H   H22       1.0  0.95510  0.36060  0.95070  1.0000
  H   H23       1.0  0.54490  0.86060  0.54930  1.0000
  H   H24       1.0  0.45510  0.86060  0.95070  1.0000
  C   C81       1.0  0.17820  0.87500  0.40340  1.0000
  C   C82       1.0  0.82180  0.87500  0.09660  1.0000
  C   C83       1.0  0.67820  0.37500  0.40340  1.0000
  C   C84       1.0  0.32180  0.37500  0.09660  1.0000
  C   C85       1.0  0.82180  0.12500  0.59660  1.0000
  C   C86       1.0  0.17820  0.12500  0.90340  1.0000
  C   C87       1.0  0.32180  0.62500  0.59660  1.0000
  C   C88       1.0  0.67820  0.62500  0.90340  1.0000
  H   H25       1.0  0.20090  0.83610  0.44440  1.0000
  H   H26       1.0  0.79910  0.83610  0.05560  1.0000
  H   H27       1.0  0.70090  0.33610  0.44440  1.0000
  H   H28       1.0  0.29910  0.33610  0.05560  1.0000
  H   H29       1.0  0.79910  0.16390  0.55560  1.0000
  H   H30       1.0  0.20090  0.16390  0.94440  1.0000
  H   H31       1.0  0.29910  0.66390  0.55560  1.0000
  H   H32       1.0  0.70090  0.66390  0.94440  1.0000
  C   C89       1.0  0.12700  0.85150  0.33130  1.0000
  C   C90       1.0  0.87300  0.85150  0.16870  1.0000
  C   C91       1.0  0.62700  0.35150  0.33130  1.0000
  C   C92       1.0  0.37300  0.35150  0.16870  1.0000
  C   C93       1.0  0.87300  0.14850  0.66870  1.0000
  C   C94       1.0  0.12700  0.14850  0.83130  1.0000
  C   C95       1.0  0.37300  0.64850  0.66870  1.0000
  C   C96       1.0  0.62700  0.64850  0.83130  1.0000
  C   C97       1.0  0.07800  0.05440  0.20700  1.0000
  C   C98       1.0  0.92200  0.05440  0.29300  1.0000
  C   C99       1.0  0.57800  0.55440  0.20700  1.0000
  C   C100      1.0  0.42200  0.55440  0.29300  1.0000
  C   C101      1.0  0.92200  0.94560  0.79300  1.0000
  C   C102      1.0  0.07800  0.94560  0.70700  1.0000
  C   C103      1.0  0.42200  0.44560  0.79300  1.0000
  C   C104      1.0  0.57800  0.44560  0.70700  1.0000
  C   C105      1.0  0.08690  0.47630  0.73210  1.0000
  C   C106      1.0  0.91310  0.47630  0.76790  1.0000
  C   C107      1.0  0.58690  0.97630  0.73210  1.0000
  C   C108      1.0  0.41310  0.97630  0.76790  1.0000
  C   C109      1.0  0.91310  0.52370  0.26790  1.0000
  C   C110      1.0  0.08690  0.52370  0.23210  1.0000
  C   C111      1.0  0.41310  0.02370  0.26790  1.0000
  C   C112      1.0  0.58690  0.02370  0.23210  1.0000
  C   C113      1.0  0.07240  0.55630  0.59870  1.0000
  C   C114      1.0  0.92760  0.55630  0.90130  1.0000
  C   C115      1.0  0.57240  0.05630  0.59870  1.0000
  C   C116      1.0  0.42760  0.05630  0.90130  1.0000
  C   C117      1.0  0.92760  0.44370  0.40130  1.0000
  C   C118      1.0  0.07240  0.44370  0.09870  1.0000
  C   C119      1.0  0.42760  0.94370  0.40130  1.0000
  C   C120      1.0  0.57240  0.94370  0.09870  1.0000
  H   H33       1.0  0.11080  0.54680  0.61250  1.0000
  H   H34       1.0  0.88920  0.54680  0.88750  1.0000
  H   H35       1.0  0.61080  0.04680  0.61250  1.0000
  H   H36       1.0  0.38920  0.04680  0.88750  1.0000
  H   H37       1.0  0.88920  0.45320  0.38750  1.0000
  H   H38       1.0  0.11080  0.45320  0.11250  1.0000
  H   H39       1.0  0.38920  0.95320  0.38750  1.0000
  H   H40       1.0  0.61080  0.95320  0.11250  1.0000
  C   C121      1.0  0.16270  0.01530  0.35160  1.0000
  C   C122      1.0  0.83730  0.01530  0.14840  1.0000
  C   C123      1.0  0.66270  0.51530  0.35160  1.0000
  C   C124      1.0  0.33730  0.51530  0.14840  1.0000
  C   C125      1.0  0.83730  0.98470  0.64840  1.0000
  C   C126      1.0  0.16270  0.98470  0.85160  1.0000
  C   C127      1.0  0.33730  0.48470  0.64840  1.0000
  C   C128      1.0  0.66270  0.48470  0.85160  1.0000
  H   H41       1.0  0.17450  0.06960  0.35860  1.0000
  H   H42       1.0  0.82550  0.06960  0.14140  1.0000
  H   H43       1.0  0.67450  0.56960  0.35860  1.0000
  H   H44       1.0  0.32550  0.56960  0.14140  1.0000
  H   H45       1.0  0.82550  0.93040  0.64140  1.0000
  H   H46       1.0  0.17450  0.93040  0.85860  1.0000
  H   H47       1.0  0.32550  0.43040  0.64140  1.0000
  H   H48       1.0  0.67450  0.43040  0.85860  1.0000
  C   C129      1.0  0.11210  0.99190  0.27840  1.0000
  C   C130      1.0  0.88790  0.99190  0.22160  1.0000
  C   C131      1.0  0.61210  0.49190  0.27840  1.0000
  C   C132      1.0  0.38790  0.49190  0.22160  1.0000
  C   C133      1.0  0.88790  0.00810  0.72160  1.0000
  C   C134      1.0  0.11210  0.00810  0.77840  1.0000
  C   C135      1.0  0.38790  0.50810  0.72160  1.0000
  C   C136      1.0  0.61210  0.50810  0.77840  1.0000
  C   C137      1.0  0.05020  0.52880  0.65500  1.0000
  C   C138      1.0  0.94980  0.52880  0.84500  1.0000
  C   C139      1.0  0.55020  0.02880  0.65500  1.0000
  C   C140      1.0  0.44980  0.02880  0.84500  1.0000
  C   C141      1.0  0.94980  0.47120  0.34500  1.0000
  C   C142      1.0  0.05020  0.47120  0.15500  1.0000
  C   C143      1.0  0.44980  0.97120  0.34500  1.0000
  C   C144      1.0  0.55020  0.97120  0.15500  1.0000
