data_image0
_chemical_formula_structural       Co12O40C24H8O8C40H8C8H8C8H8C8H8C8H8O16C24H8C8H8
_chemical_formula_sum              "Co12 O64 C128 H64"
_cell_length_a       33.093
_cell_length_b       9.6403
_cell_length_c       18.513
_cell_angle_alpha    90
_cell_angle_beta     92.954
_cell_angle_gamma    90

_space_group_name_H-M_alt    "P 1"
_space_group_IT_number       1

loop_
  _space_group_symop_operation_xyz
  'x, y, z'

loop_
  _atom_site_type_symbol
  _atom_site_label
  _atom_site_symmetry_multiplicity
  _atom_site_fract_x
  _atom_site_fract_y
  _atom_site_fract_z
  _atom_site_occupancy
  Co  Co1       1.0  0.15206  0.29562  0.48581  1.0000
  Co  Co2       1.0  0.84794  0.29562  0.01419  1.0000
  Co  Co3       1.0  0.65206  0.79562  0.48581  1.0000
  Co  Co4       1.0  0.34794  0.79562  0.01419  1.0000
  Co  Co5       1.0  0.84794  0.70438  0.51419  1.0000
  Co  Co6       1.0  0.15206  0.70438  0.98581  1.0000
  Co  Co7       1.0  0.34794  0.20438  0.51419  1.0000
  Co  Co8       1.0  0.65206  0.20438  0.98581  1.0000
  Co  Co9       1.0  0.25000  0.25000  0.50000  1.0000
  Co  Co10      1.0  0.75000  0.25000  0.00000  1.0000
  Co  Co11      1.0  0.75000  0.75000  0.50000  1.0000
  Co  Co12      1.0  0.25000  0.75000  0.00000  1.0000
  O   O1        1.0  0.22613  0.18137  0.40192  1.0000
  O   O2        1.0  0.77387  0.18137  0.09808  1.0000
  O   O3        1.0  0.72613  0.68137  0.40192  1.0000
  O   O4        1.0  0.27387  0.68137  0.09808  1.0000
  O   O5        1.0  0.77387  0.81863  0.59808  1.0000
  O   O6        1.0  0.22613  0.81863  0.90192  1.0000
  O   O7        1.0  0.27387  0.31863  0.59808  1.0000
  O   O8        1.0  0.72613  0.31863  0.90192  1.0000
  O   O9        1.0  0.20335  0.40590  0.50405  1.0000
  O   O10       1.0  0.79665  0.40590  0.99595  1.0000
  O   O11       1.0  0.70335  0.90590  0.50405  1.0000
  O   O12       1.0  0.29665  0.90590  0.99595  1.0000
  O   O13       1.0  0.79665  0.59410  0.49595  1.0000
  O   O14       1.0  0.20335  0.59410  0.00405  1.0000
  O   O15       1.0  0.29665  0.09410  0.49595  1.0000
  O   O16       1.0  0.70335  0.09410  0.00405  1.0000
  O   O17       1.0  0.15867  0.17542  0.40142  1.0000
  O   O18       1.0  0.84133  0.17542  0.09858  1.0000
  O   O19       1.0  0.65867  0.67542  0.40142  1.0000
  O   O20       1.0  0.34133  0.67542  0.09858  1.0000
  O   O21       1.0  0.84133  0.82458  0.59858  1.0000
  O   O22       1.0  0.15867  0.82458  0.90142  1.0000
  O   O23       1.0  0.34133  0.32458  0.59858  1.0000
  O   O24       1.0  0.65867  0.32458  0.90142  1.0000
  O   O25       1.0  0.21623  0.88315  0.05945  1.0000
  O   O26       1.0  0.78377  0.88315  0.44055  1.0000
  O   O27       1.0  0.71623  0.38315  0.05945  1.0000
  O   O28       1.0  0.28377  0.38315  0.44055  1.0000
  O   O29       1.0  0.78377  0.11685  0.94055  1.0000
  O   O30       1.0  0.21623  0.11685  0.55945  1.0000
  O   O31       1.0  0.28377  0.61685  0.94055  1.0000
  O   O32       1.0  0.71623  0.61685  0.55945  1.0000
  O   O33       1.0  0.15388  0.81000  0.07809  1.0000
  O   O34       1.0  0.84612  0.81000  0.42191  1.0000
  O   O35       1.0  0.65388  0.31000  0.07809  1.0000
  O   O36       1.0  0.34612  0.31000  0.42191  1.0000
  O   O37       1.0  0.84612  0.19000  0.92191  1.0000
  O   O38       1.0  0.15388  0.19000  0.57809  1.0000
  O   O39       1.0  0.34612  0.69000  0.92191  1.0000
  O   O40       1.0  0.65388  0.69000  0.57809  1.0000
  C   C1        1.0  0.22751  0.63270  0.48001  1.0000
  C   C2        1.0  0.77249  0.63270  0.01999  1.0000
  C   C3        1.0  0.72751  0.13270  0.48001  1.0000
  C   C4        1.0  0.27249  0.13270  0.01999  1.0000
  C   C5        1.0  0.77249  0.36730  0.51999  1.0000
  C   C6        1.0  0.22751  0.36730  0.98001  1.0000
  C   C7        1.0  0.27249  0.86730  0.51999  1.0000
  C   C8        1.0  0.72751  0.86730  0.98001  1.0000
  C   C9        1.0  0.18609  0.87290  0.09666  1.0000
  C   C10       1.0  0.81391  0.87290  0.40334  1.0000
  C   C11       1.0  0.68609  0.37290  0.09666  1.0000
  C   C12       1.0  0.31391  0.37290  0.40334  1.0000
  C   C13       1.0  0.81391  0.12710  0.90334  1.0000
  C   C14       1.0  0.18609  0.12710  0.59666  1.0000
  C   C15       1.0  0.31391  0.62710  0.90334  1.0000
  C   C16       1.0  0.68609  0.62710  0.59666  1.0000
  C   C17       1.0  0.24738  0.64090  0.54838  1.0000
  C   C18       1.0  0.75262  0.64090  0.95162  1.0000
  C   C19       1.0  0.74738  0.14090  0.54838  1.0000
  C   C20       1.0  0.25262  0.14090  0.95162  1.0000
  C   C21       1.0  0.75262  0.35910  0.45162  1.0000
  C   C22       1.0  0.24738  0.35910  0.04838  1.0000
  C   C23       1.0  0.25262  0.85910  0.45162  1.0000
  C   C24       1.0  0.74738  0.85910  0.04838  1.0000
  H   H1        1.0  0.24560  0.56570  0.58120  1.0000
  H   H2        1.0  0.75440  0.56570  0.91880  1.0000
  H   H3        1.0  0.74560  0.06570  0.58120  1.0000
  H   H4        1.0  0.25440  0.06570  0.91880  1.0000
  H   H5        1.0  0.75440  0.43430  0.41880  1.0000
  H   H6        1.0  0.24560  0.43430  0.08120  1.0000
  H   H7        1.0  0.25440  0.93430  0.41880  1.0000
  H   H8        1.0  0.74560  0.93430  0.08120  1.0000
  O   O41       1.0  0.10718  0.43590  0.49823  1.0000
  O   O42       1.0  0.89282  0.43590  0.00177  1.0000
  O   O43       1.0  0.60718  0.93590  0.49823  1.0000
  O   O44       1.0  0.39282  0.93590  0.00177  1.0000
  O   O45       1.0  0.89282  0.56410  0.50177  1.0000
  O   O46       1.0  0.10718  0.56410  0.99823  1.0000
  O   O47       1.0  0.39282  0.06410  0.50177  1.0000
  O   O48       1.0  0.60718  0.06410  0.99823  1.0000
  C   C25       1.0  0.19248  0.15140  0.37459  1.0000
  C   C26       1.0  0.80752  0.15140  0.12541  1.0000
  C   C27       1.0  0.69248  0.65140  0.37459  1.0000
  C   C28       1.0  0.30752  0.65140  0.12541  1.0000
  C   C29       1.0  0.80752  0.84860  0.62541  1.0000
  C   C30       1.0  0.19248  0.84860  0.87459  1.0000
  C   C31       1.0  0.30752  0.34860  0.62541  1.0000
  C   C32       1.0  0.69248  0.34860  0.87459  1.0000
  C   C33       1.0  0.20187  0.50970  0.45949  1.0000
  C   C34       1.0  0.79813  0.50970  0.04051  1.0000
  C   C35       1.0  0.70187  0.00970  0.45949  1.0000
  C   C36       1.0  0.29813  0.00970  0.04051  1.0000
  C   C37       1.0  0.79813  0.49030  0.54051  1.0000
  C   C38       1.0  0.20187  0.49030  0.95949  1.0000
  C   C39       1.0  0.29813  0.99030  0.54051  1.0000
  C   C40       1.0  0.70187  0.99030  0.95949  1.0000
  C   C41       1.0  0.18774  0.94230  0.16957  1.0000
  C   C42       1.0  0.81226  0.94230  0.33043  1.0000
  C   C43       1.0  0.68774  0.44230  0.16957  1.0000
  C   C44       1.0  0.31226  0.44230  0.33043  1.0000
  C   C45       1.0  0.81226  0.05770  0.83043  1.0000
  C   C46       1.0  0.18774  0.05770  0.66957  1.0000
  C   C47       1.0  0.31226  0.55770  0.83043  1.0000
  C   C48       1.0  0.68774  0.55770  0.66957  1.0000
  C   C49       1.0  0.19147  0.07740  0.30308  1.0000
  C   C50       1.0  0.80853  0.07740  0.19692  1.0000
  C   C51       1.0  0.69147  0.57740  0.30308  1.0000
  C   C52       1.0  0.30853  0.57740  0.19692  1.0000
  C   C53       1.0  0.80853  0.92260  0.69692  1.0000
  C   C54       1.0  0.19147  0.92260  0.80308  1.0000
  C   C55       1.0  0.30853  0.42260  0.69692  1.0000
  C   C56       1.0  0.69147  0.42260  0.80308  1.0000
  C   C57       1.0  0.23039  0.74260  0.43132  1.0000
  C   C58       1.0  0.76961  0.74260  0.06868  1.0000
  C   C59       1.0  0.73039  0.24260  0.43132  1.0000
  C   C60       1.0  0.26961  0.24260  0.06868  1.0000
  C   C61       1.0  0.76961  0.25740  0.56868  1.0000
  C   C62       1.0  0.23039  0.25740  0.93132  1.0000
  C   C63       1.0  0.26961  0.75740  0.56868  1.0000
  C   C64       1.0  0.73039  0.75740  0.93132  1.0000
  H   H9        1.0  0.21720  0.73740  0.38460  1.0000
  H   H10       1.0  0.78280  0.73740  0.11540  1.0000
  H   H11       1.0  0.71720  0.23740  0.38460  1.0000
  H   H12       1.0  0.28280  0.23740  0.11540  1.0000
  H   H13       1.0  0.78280  0.26260  0.61540  1.0000
  H   H14       1.0  0.21720  0.26260  0.88460  1.0000
  H   H15       1.0  0.28280  0.76260  0.61540  1.0000
  H   H16       1.0  0.71720  0.76260  0.88460  1.0000
  C   C65       1.0  0.22474  0.06320  0.26541  1.0000
  C   C66       1.0  0.77526  0.06320  0.23459  1.0000
  C   C67       1.0  0.72474  0.56320  0.26541  1.0000
  C   C68       1.0  0.27526  0.56320  0.23459  1.0000
  C   C69       1.0  0.77526  0.93680  0.73459  1.0000
  C   C70       1.0  0.22474  0.93680  0.76541  1.0000
  C   C71       1.0  0.27526  0.43680  0.73459  1.0000
  C   C72       1.0  0.72474  0.43680  0.76541  1.0000
  H   H17       1.0  0.24960  0.10030  0.28490  1.0000
  H   H18       1.0  0.75040  0.10030  0.21510  1.0000
  H   H19       1.0  0.74960  0.60030  0.28490  1.0000
  H   H20       1.0  0.25040  0.60030  0.21510  1.0000
  H   H21       1.0  0.75040  0.89970  0.71510  1.0000
  H   H22       1.0  0.24960  0.89970  0.78490  1.0000
  H   H23       1.0  0.25040  0.39970  0.71510  1.0000
  H   H24       1.0  0.74960  0.39970  0.78490  1.0000
  C   C73       1.0  0.22432  0.99600  0.19871  1.0000
  C   C74       1.0  0.77568  0.99600  0.30129  1.0000
  C   C75       1.0  0.72432  0.49600  0.19871  1.0000
  C   C76       1.0  0.27568  0.49600  0.30129  1.0000
  C   C77       1.0  0.77568  0.00400  0.80129  1.0000
  C   C78       1.0  0.22432  0.00400  0.69871  1.0000
  C   C79       1.0  0.27568  0.50400  0.80129  1.0000
  C   C80       1.0  0.72432  0.50400  0.69871  1.0000
  H   H25       1.0  0.24850  0.98690  0.17350  1.0000
  H   H26       1.0  0.75150  0.98690  0.32650  1.0000
  H   H27       1.0  0.74850  0.48690  0.17350  1.0000
  H   H28       1.0  0.25150  0.48690  0.32650  1.0000
  H   H29       1.0  0.75150  0.01310  0.82650  1.0000
  H   H30       1.0  0.24850  0.01310  0.67350  1.0000
  H   H31       1.0  0.25150  0.51310  0.82650  1.0000
  H   H32       1.0  0.74850  0.51310  0.67350  1.0000
  C   C81       1.0  0.15443  0.02300  0.27428  1.0000
  C   C82       1.0  0.84557  0.02300  0.22572  1.0000
  C   C83       1.0  0.65443  0.52300  0.27428  1.0000
  C   C84       1.0  0.34557  0.52300  0.22572  1.0000
  C   C85       1.0  0.84557  0.97700  0.72572  1.0000
  C   C86       1.0  0.15443  0.97700  0.77428  1.0000
  C   C87       1.0  0.34557  0.47700  0.72572  1.0000
  C   C88       1.0  0.65443  0.47700  0.77428  1.0000
  H   H33       1.0  0.13050  0.03160  0.30020  1.0000
  H   H34       1.0  0.86950  0.03160  0.19980  1.0000
  H   H35       1.0  0.63050  0.53160  0.30020  1.0000
  H   H36       1.0  0.36950  0.53160  0.19980  1.0000
  H   H37       1.0  0.86950  0.96840  0.69980  1.0000
  H   H38       1.0  0.13050  0.96840  0.80020  1.0000
  H   H39       1.0  0.36950  0.46840  0.69980  1.0000
  H   H40       1.0  0.63050  0.46840  0.80020  1.0000
  C   C89       1.0  0.15345  0.95730  0.20815  1.0000
  C   C90       1.0  0.84655  0.95730  0.29185  1.0000
  C   C91       1.0  0.65345  0.45730  0.20815  1.0000
  C   C92       1.0  0.34655  0.45730  0.29185  1.0000
  C   C93       1.0  0.84655  0.04270  0.79185  1.0000
  C   C94       1.0  0.15345  0.04270  0.70815  1.0000
  C   C95       1.0  0.34655  0.54270  0.79185  1.0000
  C   C96       1.0  0.65345  0.54270  0.70815  1.0000
  H   H41       1.0  0.12850  0.92150  0.18860  1.0000
  H   H42       1.0  0.87150  0.92150  0.31140  1.0000
  H   H43       1.0  0.62850  0.42150  0.18860  1.0000
  H   H44       1.0  0.37150  0.42150  0.31140  1.0000
  H   H45       1.0  0.87150  0.07850  0.81140  1.0000
  H   H46       1.0  0.12850  0.07850  0.68860  1.0000
  H   H47       1.0  0.37150  0.57850  0.81140  1.0000
  H   H48       1.0  0.62850  0.57850  0.68860  1.0000
  O   O49       1.0  0.17895  0.51083  0.40386  1.0000
  O   O50       1.0  0.82105  0.51083  0.09614  1.0000
  O   O51       1.0  0.67895  0.01083  0.40386  1.0000
  O   O52       1.0  0.32105  0.01083  0.09614  1.0000
  O   O53       1.0  0.82105  0.48917  0.59614  1.0000
  O   O54       1.0  0.17895  0.48917  0.90386  1.0000
  O   O55       1.0  0.32105  0.98917  0.59614  1.0000
  O   O56       1.0  0.67895  0.98917  0.90386  1.0000
  O   O57       1.0  0.07901  0.23870  0.47331  1.0000
  O   O58       1.0  0.92099  0.23870  0.02669  1.0000
  O   O59       1.0  0.57901  0.73870  0.47331  1.0000
  O   O60       1.0  0.42099  0.73870  0.02669  1.0000
  O   O61       1.0  0.92099  0.76130  0.52669  1.0000
  O   O62       1.0  0.07901  0.76130  0.97331  1.0000
  O   O63       1.0  0.42099  0.26130  0.52669  1.0000
  O   O64       1.0  0.57901  0.26130  0.97331  1.0000
  C   C97       1.0  0.07818  0.36360  0.48860  1.0000
  C   C98       1.0  0.92182  0.36360  0.01140  1.0000
  C   C99       1.0  0.57818  0.86360  0.48860  1.0000
  C   C100      1.0  0.42182  0.86360  0.01140  1.0000
  C   C101      1.0  0.92182  0.63640  0.51140  1.0000
  C   C102      1.0  0.07818  0.63640  0.98860  1.0000
  C   C103      1.0  0.42182  0.13640  0.51140  1.0000
  C   C104      1.0  0.57818  0.13640  0.98860  1.0000
  C   C105      1.0  0.03750  0.43310  0.49510  1.0000
  C   C106      1.0  0.96250  0.43310  0.00490  1.0000
  C   C107      1.0  0.53750  0.93310  0.49510  1.0000
  C   C108      1.0  0.46250  0.93310  0.00490  1.0000
  C   C109      1.0  0.96250  0.56690  0.50490  1.0000
  C   C110      1.0  0.03750  0.56690  0.99510  1.0000
  C   C111      1.0  0.46250  0.06690  0.50490  1.0000
  C   C112      1.0  0.53750  0.06690  0.99510  1.0000
  C   C113      1.0  0.00338  0.36410  0.47490  1.0000
  C   C114      1.0  0.99662  0.36410  0.02510  1.0000
  C   C115      1.0  0.50338  0.86410  0.47490  1.0000
  C   C116      1.0  0.49662  0.86410  0.02510  1.0000
  C   C117      1.0  0.99662  0.63590  0.52510  1.0000
  C   C118      1.0  0.00338  0.63590  0.97490  1.0000
  C   C119      1.0  0.49662  0.13590  0.52510  1.0000
  C   C120      1.0  0.50338  0.13590  0.97490  1.0000
  H   H49       1.0  0.00440  0.27140  0.45770  1.0000
  H   H50       1.0  0.99560  0.27140  0.04230  1.0000
  H   H51       1.0  0.50440  0.77140  0.45770  1.0000
  H   H52       1.0  0.49560  0.77140  0.04230  1.0000
  H   H53       1.0  0.99560  0.72860  0.54230  1.0000
  H   H54       1.0  0.00440  0.72860  0.95770  1.0000
  H   H55       1.0  0.49560  0.22860  0.54230  1.0000
  H   H56       1.0  0.50440  0.22860  0.95770  1.0000
  C   C121      1.0  0.03499  0.56450  0.51980  1.0000
  C   C122      1.0  0.96501  0.56450  0.98020  1.0000
  C   C123      1.0  0.53499  0.06450  0.51980  1.0000
  C   C124      1.0  0.46501  0.06450  0.98020  1.0000
  C   C125      1.0  0.96501  0.43550  0.48020  1.0000
  C   C126      1.0  0.03499  0.43550  0.01980  1.0000
  C   C127      1.0  0.46501  0.93550  0.48020  1.0000
  C   C128      1.0  0.53499  0.93550  0.01980  1.0000
  H   H57       1.0  0.05920  0.61190  0.53440  1.0000
  H   H58       1.0  0.94080  0.61190  0.96560  1.0000
  H   H59       1.0  0.55920  0.11190  0.53440  1.0000
  H   H60       1.0  0.44080  0.11190  0.96560  1.0000
  H   H61       1.0  0.94080  0.38810  0.46560  1.0000
  H   H62       1.0  0.05920  0.38810  0.03440  1.0000
  H   H63       1.0  0.44080  0.88810  0.46560  1.0000
  H   H64       1.0  0.55920  0.88810  0.03440  1.0000
