data_image0
_chemical_formula_structural       Co6Br4C8H4C4H4C8H4C4H4C8O16C8H4C4H4C4O8
_chemical_formula_sum              "Co6 Br4 C48 H24 O24"
_cell_length_a       12.9273
_cell_length_b       9.3874
_cell_length_c       18.211
_cell_angle_alpha    90
_cell_angle_beta     107.861
_cell_angle_gamma    90

_space_group_name_H-M_alt    "P 1"
_space_group_IT_number       1

loop_
  _space_group_symop_operation_xyz
  'x, y, z'

loop_
  _atom_site_type_symbol
  _atom_site_label
  _atom_site_symmetry_multiplicity
  _atom_site_fract_x
  _atom_site_fract_y
  _atom_site_fract_z
  _atom_site_occupancy
  Co  Co1       1.0  0.80011  0.02992  0.07094  1.0000
  Co  Co2       1.0  0.69989  0.52992  0.42906  1.0000
  Co  Co3       1.0  0.19989  0.97008  0.92906  1.0000
  Co  Co4       1.0  0.30011  0.47008  0.57094  1.0000
  Co  Co5       1.0  0.00000  0.00000  0.00000  1.0000
  Co  Co6       1.0  0.50000  0.50000  0.50000  1.0000
  Br  Br1       1.0  0.64915  0.15138  0.09248  1.0000
  Br  Br2       1.0  0.85085  0.65138  0.40752  1.0000
  Br  Br3       1.0  0.35085  0.84862  0.90752  1.0000
  Br  Br4       1.0  0.14915  0.34862  0.59248  1.0000
  C   C1        1.0  0.05900  0.83760  0.23450  1.0000
  C   C2        1.0  0.44100  0.33760  0.26550  1.0000
  C   C3        1.0  0.94100  0.16240  0.76550  1.0000
  C   C4        1.0  0.55900  0.66240  0.73450  1.0000
  C   C5        1.0  0.02290  0.79240  0.29530  1.0000
  C   C6        1.0  0.47710  0.29240  0.20470  1.0000
  C   C7        1.0  0.97710  0.20760  0.70470  1.0000
  C   C8        1.0  0.52290  0.70760  0.79530  1.0000
  H   H1        1.0  0.94990  0.80220  0.29160  1.0000
  H   H2        1.0  0.55010  0.30220  0.20840  1.0000
  H   H3        1.0  0.05010  0.19780  0.70840  1.0000
  H   H4        1.0  0.44990  0.69780  0.79160  1.0000
  C   C9        1.0  0.09290  0.73400  0.36020  1.0000
  C   C10       1.0  0.40710  0.23400  0.13980  1.0000
  C   C11       1.0  0.90710  0.26600  0.63980  1.0000
  C   C12       1.0  0.59290  0.76600  0.86020  1.0000
  H   H5        1.0  0.06750  0.70620  0.40060  1.0000
  H   H6        1.0  0.43250  0.20620  0.09940  1.0000
  H   H7        1.0  0.93250  0.29380  0.59940  1.0000
  H   H8        1.0  0.56750  0.79380  0.90060  1.0000
  C   C13       1.0  0.20250  0.71600  0.36630  1.0000
  C   C14       1.0  0.29750  0.21600  0.13370  1.0000
  C   C15       1.0  0.79750  0.28400  0.63370  1.0000
  C   C16       1.0  0.70250  0.78400  0.86630  1.0000
  C   C17       1.0  0.24020  0.75970  0.30650  1.0000
  C   C18       1.0  0.25980  0.25970  0.19350  1.0000
  C   C19       1.0  0.75980  0.24030  0.69350  1.0000
  C   C20       1.0  0.74020  0.74030  0.80650  1.0000
  H   H9        1.0  0.31310  0.74830  0.31010  1.0000
  H   H10       1.0  0.18690  0.24830  0.18990  1.0000
  H   H11       1.0  0.68690  0.25170  0.68990  1.0000
  H   H12       1.0  0.81310  0.75170  0.81010  1.0000
  C   C21       1.0  0.16950  0.81990  0.24170  1.0000
  C   C22       1.0  0.33050  0.31990  0.25830  1.0000
  C   C23       1.0  0.83050  0.18010  0.75830  1.0000
  C   C24       1.0  0.66950  0.68010  0.74170  1.0000
  H   H13       1.0  0.19530  0.84960  0.20180  1.0000
  H   H14       1.0  0.30470  0.34960  0.29820  1.0000
  H   H15       1.0  0.80470  0.15040  0.79820  1.0000
  H   H16       1.0  0.69530  0.65040  0.70180  1.0000
  C   C25       1.0  0.98270  0.89410  0.16240  1.0000
  C   C26       1.0  0.51730  0.39410  0.33760  1.0000
  C   C27       1.0  0.01730  0.10590  0.83760  1.0000
  C   C28       1.0  0.48270  0.60590  0.66240  1.0000
  C   C29       1.0  0.27670  0.64160  0.43440  1.0000
  C   C30       1.0  0.22330  0.14160  0.06560  1.0000
  C   C31       1.0  0.72330  0.35840  0.56560  1.0000
  C   C32       1.0  0.77670  0.85840  0.93440  1.0000
  O   O1        1.0  0.01160  0.90230  0.10400  1.0000
  O   O2        1.0  0.48840  0.40230  0.39600  1.0000
  O   O3        1.0  0.98840  0.09770  0.89600  1.0000
  O   O4        1.0  0.51160  0.59770  0.60400  1.0000
  O   O5        1.0  0.88740  0.93050  0.16429  1.0000
  O   O6        1.0  0.61260  0.43050  0.33571  1.0000
  O   O7        1.0  0.11260  0.06950  0.83571  1.0000
  O   O8        1.0  0.38740  0.56950  0.66429  1.0000
  O   O9        1.0  0.37360  0.62350  0.43700  1.0000
  O   O10       1.0  0.12640  0.12350  0.06300  1.0000
  O   O11       1.0  0.62640  0.37650  0.56300  1.0000
  O   O12       1.0  0.87360  0.87650  0.93700  1.0000
  O   O13       1.0  0.23610  0.60430  0.48652  1.0000
  O   O14       1.0  0.26390  0.10430  0.01348  1.0000
  O   O15       1.0  0.76390  0.39570  0.51348  1.0000
  O   O16       1.0  0.73610  0.89570  0.98652  1.0000
  C   C33       1.0  0.96580  0.38270  0.03440  1.0000
  C   C34       1.0  0.53420  0.88270  0.46560  1.0000
  C   C35       1.0  0.03420  0.61730  0.96560  1.0000
  C   C36       1.0  0.46580  0.11730  0.53440  1.0000
  C   C37       1.0  0.02810  0.49330  0.07920  1.0000
  C   C38       1.0  0.47190  0.99330  0.42080  1.0000
  C   C39       1.0  0.97190  0.50670  0.92080  1.0000
  C   C40       1.0  0.52810  0.00670  0.57920  1.0000
  H   H17       1.0  0.04660  0.48840  0.13270  1.0000
  H   H18       1.0  0.45340  0.98840  0.36730  1.0000
  H   H19       1.0  0.95340  0.51160  0.86730  1.0000
  H   H20       1.0  0.54660  0.01160  0.63270  1.0000
  C   C41       1.0  0.06230  0.60880  0.04550  1.0000
  C   C42       1.0  0.43770  0.10880  0.45450  1.0000
  C   C43       1.0  0.93770  0.39120  0.95450  1.0000
  C   C44       1.0  0.56230  0.89120  0.54550  1.0000
  H   H21       1.0  0.10380  0.68030  0.07610  1.0000
  H   H22       1.0  0.39620  0.18030  0.42390  1.0000
  H   H23       1.0  0.89620  0.31970  0.92390  1.0000
  H   H24       1.0  0.60380  0.81970  0.57610  1.0000
  C   C45       1.0  0.92900  0.26040  0.07190  1.0000
  C   C46       1.0  0.57100  0.76040  0.42810  1.0000
  C   C47       1.0  0.07100  0.73960  0.92810  1.0000
  C   C48       1.0  0.42900  0.23960  0.57190  1.0000
  O   O17       1.0  0.89060  0.15200  0.02624  1.0000
  O   O18       1.0  0.60940  0.65200  0.47376  1.0000
  O   O19       1.0  0.10940  0.84800  0.97376  1.0000
  O   O20       1.0  0.39060  0.34800  0.52624  1.0000
  O   O21       1.0  0.93500  0.26170  0.14020  1.0000
  O   O22       1.0  0.56500  0.76170  0.35980  1.0000
  O   O23       1.0  0.06500  0.73830  0.85980  1.0000
  O   O24       1.0  0.43500  0.23830  0.64020  1.0000
