data_image0
_chemical_formula_structural       Co6Br4O24C12H4C4H4C8H4C4H4C16H4C4H4
_chemical_formula_sum              "Co6 Br4 O24 C48 H24"
_cell_length_a       12.9773
_cell_length_b       9.4496
_cell_length_c       18.231
_cell_angle_alpha    90
_cell_angle_beta     108.237
_cell_angle_gamma    90

_space_group_name_H-M_alt    "P 1"
_space_group_IT_number       1

loop_
  _space_group_symop_operation_xyz
  'x, y, z'

loop_
  _atom_site_type_symbol
  _atom_site_label
  _atom_site_symmetry_multiplicity
  _atom_site_fract_x
  _atom_site_fract_y
  _atom_site_fract_z
  _atom_site_occupancy
  Co  Co1       1.0  0.80325  0.03284  0.07235  1.0000
  Co  Co2       1.0  0.69675  0.53284  0.42765  1.0000
  Co  Co3       1.0  0.19675  0.96716  0.92765  1.0000
  Co  Co4       1.0  0.30325  0.46716  0.57235  1.0000
  Co  Co5       1.0  1.00000  0.00000  0.00000  1.0000
  Co  Co6       1.0  0.50000  0.50000  0.50000  1.0000
  Br  Br1       1.0  0.65423  0.14722  0.09911  1.0000
  Br  Br2       1.0  0.84577  0.64722  0.40089  1.0000
  Br  Br3       1.0  0.34577  0.85278  0.90089  1.0000
  Br  Br4       1.0  0.15423  0.35278  0.59911  1.0000
  O   O1        1.0  0.89181  0.92910  0.16322  1.0000
  O   O2        1.0  0.60819  0.42910  0.33678  1.0000
  O   O3        1.0  0.10819  0.07090  0.83678  1.0000
  O   O4        1.0  0.39181  0.57090  0.66322  1.0000
  O   O5        1.0  0.02110  0.91170  0.10655  1.0000
  O   O6        1.0  0.47890  0.41170  0.39345  1.0000
  O   O7        1.0  0.97890  0.08830  0.89345  1.0000
  O   O8        1.0  0.52110  0.58830  0.60655  1.0000
  O   O9        1.0  0.23276  0.59530  0.48643  1.0000
  O   O10       1.0  0.26724  0.09530  0.01357  1.0000
  O   O11       1.0  0.76724  0.40470  0.51357  1.0000
  O   O12       1.0  0.73276  0.90470  0.98643  1.0000
  O   O13       1.0  0.37360  0.62770  0.44261  1.0000
  O   O14       1.0  0.12640  0.12770  0.05739  1.0000
  O   O15       1.0  0.62640  0.37230  0.55739  1.0000
  O   O16       1.0  0.87360  0.87230  0.94261  1.0000
  O   O17       1.0  0.89090  0.15323  0.02546  1.0000
  O   O18       1.0  0.60910  0.65323  0.47454  1.0000
  O   O19       1.0  0.10910  0.84677  0.97454  1.0000
  O   O20       1.0  0.39090  0.34677  0.52546  1.0000
  O   O21       1.0  0.93400  0.26300  0.13893  1.0000
  O   O22       1.0  0.56600  0.76300  0.36107  1.0000
  O   O23       1.0  0.06600  0.73700  0.86107  1.0000
  O   O24       1.0  0.43400  0.23700  0.63893  1.0000
  C   C1        1.0  0.98660  0.89560  0.16243  1.0000
  C   C2        1.0  0.51340  0.39560  0.33757  1.0000
  C   C3        1.0  0.01340  0.10440  0.83757  1.0000
  C   C4        1.0  0.48660  0.60440  0.66243  1.0000
  C   C5        1.0  0.06170  0.83110  0.23442  1.0000
  C   C6        1.0  0.43830  0.33110  0.26558  1.0000
  C   C7        1.0  0.93830  0.16890  0.76558  1.0000
  C   C8        1.0  0.56170  0.66890  0.73442  1.0000
  C   C9        1.0  0.17170  0.81930  0.24350  1.0000
  C   C10       1.0  0.32830  0.31930  0.25650  1.0000
  C   C11       1.0  0.82830  0.18070  0.75650  1.0000
  C   C12       1.0  0.67170  0.68070  0.74350  1.0000
  H   H1        1.0  0.19900  0.85300  0.20410  1.0000
  H   H2        1.0  0.30100  0.35300  0.29590  1.0000
  H   H3        1.0  0.80100  0.14700  0.79590  1.0000
  H   H4        1.0  0.69900  0.64700  0.70410  1.0000
  C   C13       1.0  0.24180  0.75910  0.30928  1.0000
  C   C14       1.0  0.25820  0.25910  0.19072  1.0000
  C   C15       1.0  0.75820  0.24090  0.69072  1.0000
  C   C16       1.0  0.74180  0.74090  0.80928  1.0000
  H   H5        1.0  0.31700  0.75130  0.31520  1.0000
  H   H6        1.0  0.18300  0.25130  0.18480  1.0000
  H   H7        1.0  0.68300  0.24870  0.68480  1.0000
  H   H8        1.0  0.81700  0.74870  0.81520  1.0000
  C   C17       1.0  0.20160  0.71000  0.36685  1.0000
  C   C18       1.0  0.29840  0.21000  0.13315  1.0000
  C   C19       1.0  0.79840  0.29000  0.63315  1.0000
  C   C20       1.0  0.70160  0.79000  0.86685  1.0000
  C   C21       1.0  0.09200  0.72210  0.35820  1.0000
  C   C22       1.0  0.40800  0.22210  0.14180  1.0000
  C   C23       1.0  0.90800  0.27790  0.64180  1.0000
  C   C24       1.0  0.59200  0.77790  0.85820  1.0000
  H   H9        1.0  0.06480  0.68830  0.39760  1.0000
  H   H10       1.0  0.43520  0.18830  0.10240  1.0000
  H   H11       1.0  0.93520  0.31170  0.60240  1.0000
  H   H12       1.0  0.56480  0.81170  0.89760  1.0000
  C   C25       1.0  0.02210  0.78300  0.29250  1.0000
  C   C26       1.0  0.47790  0.28300  0.20750  1.0000
  C   C27       1.0  0.97790  0.21700  0.70750  1.0000
  C   C28       1.0  0.52210  0.71700  0.79250  1.0000
  H   H13       1.0  0.94720  0.79210  0.28710  1.0000
  H   H14       1.0  0.55280  0.29210  0.21290  1.0000
  H   H15       1.0  0.05280  0.20790  0.71290  1.0000
  H   H16       1.0  0.44720  0.70790  0.78710  1.0000
  C   C29       1.0  0.27590  0.63910  0.43773  1.0000
  C   C30       1.0  0.22410  0.13910  0.06227  1.0000
  C   C31       1.0  0.72410  0.36090  0.56227  1.0000
  C   C32       1.0  0.77590  0.86090  0.93773  1.0000
  C   C33       1.0  0.93060  0.26100  0.07091  1.0000
  C   C34       1.0  0.56940  0.76100  0.42909  1.0000
  C   C35       1.0  0.06940  0.73900  0.92909  1.0000
  C   C36       1.0  0.43060  0.23900  0.57091  1.0000
  C   C37       1.0  0.96750  0.38370  0.03416  1.0000
  C   C38       1.0  0.53250  0.88370  0.46584  1.0000
  C   C39       1.0  0.03250  0.61630  0.96584  1.0000
  C   C40       1.0  0.46750  0.11630  0.53416  1.0000
  C   C41       1.0  0.94460  0.38950  0.95444  1.0000
  C   C42       1.0  0.55540  0.88950  0.54556  1.0000
  C   C43       1.0  0.05540  0.61050  0.04556  1.0000
  C   C44       1.0  0.44460  0.11050  0.45444  1.0000
  H   H17       1.0  0.90650  0.31390  0.92320  1.0000
  H   H18       1.0  0.59350  0.81390  0.57680  1.0000
  H   H19       1.0  0.09350  0.68610  0.07680  1.0000
  H   H20       1.0  0.40650  0.18610  0.42320  1.0000
  C   C45       1.0  0.02270  0.49460  0.07975  1.0000
  C   C46       1.0  0.47730  0.99460  0.42025  1.0000
  C   C47       1.0  0.97730  0.50540  0.92025  1.0000
  C   C48       1.0  0.52270  0.00540  0.57975  1.0000
  H   H21       1.0  0.03820  0.49120  0.13420  1.0000
  H   H22       1.0  0.46180  0.99120  0.36580  1.0000
  H   H23       1.0  0.96180  0.50880  0.86580  1.0000
  H   H24       1.0  0.53820  0.00880  0.63420  1.0000
