data_image0
_chemical_formula_structural       C4H2C4H2C2H2C10H2C4H2C4H2C8O16Zn3
_chemical_formula_sum              "C36 H12 O16 Zn3"
_cell_length_a       9.53
_cell_length_b       10.168
_cell_length_c       13.026
_cell_angle_alpha    111.005
_cell_angle_beta     105.569
_cell_angle_gamma    90.497

_space_group_name_H-M_alt    "P 1"
_space_group_IT_number       1

loop_
  _space_group_symop_operation_xyz
  'x, y, z'

loop_
  _atom_site_type_symbol
  _atom_site_label
  _atom_site_symmetry_multiplicity
  _atom_site_fract_x
  _atom_site_fract_y
  _atom_site_fract_z
  _atom_site_occupancy
  C   C1        1.0  0.59370  0.22500  0.84770  1.0000
  C   C2        1.0  0.40630  0.77500  0.15230  1.0000
  C   C3        1.0  0.57180  0.30870  0.78180  1.0000
  C   C4        1.0  0.42820  0.69130  0.21820  1.0000
  H   H1        1.0  0.53750  0.26650  0.70210  1.0000
  H   H2        1.0  0.46250  0.73350  0.29790  1.0000
  C   C5        1.0  0.60150  0.45670  0.83560  1.0000
  C   C6        1.0  0.39850  0.54330  0.16440  1.0000
  C   C7        1.0  0.66080  0.51530  0.95410  1.0000
  C   C8        1.0  0.33920  0.48470  0.04590  1.0000
  H   H3        1.0  0.68340  0.61320  0.98980  1.0000
  H   H4        1.0  0.31660  0.38680  0.01020  1.0000
  C   C9        1.0  0.64850  0.28740  0.96540  1.0000
  C   C10       1.0  0.35150  0.71260  0.03460  1.0000
  H   H5        1.0  0.65920  0.22990  0.00800  1.0000
  H   H6        1.0  0.34080  0.77010  0.99200  1.0000
  C   C11       1.0  0.68850  0.43240  0.02320  1.0000
  C   C12       1.0  0.31150  0.56760  0.97680  1.0000
  C   C13       1.0  0.75160  0.49700  0.14220  1.0000
  C   C14       1.0  0.24840  0.50300  0.85780  1.0000
  C   C15       1.0  0.81020  0.54600  0.24400  1.0000
  C   C16       1.0  0.18980  0.45400  0.75600  1.0000
  C   C17       1.0  0.87820  0.60620  0.36270  1.0000
  C   C18       1.0  0.12180  0.39380  0.63730  1.0000
  C   C19       1.0  0.79550  0.65690  0.44160  1.0000
  C   C20       1.0  0.20450  0.34310  0.55840  1.0000
  H   H7        1.0  0.69450  0.65470  0.41410  1.0000
  H   H8        1.0  0.30550  0.34530  0.58590  1.0000
  C   C21       1.0  0.86170  0.70900  0.55780  1.0000
  C   C22       1.0  0.13830  0.29100  0.44220  1.0000
  C   C23       1.0  0.01350  0.71740  0.60110  1.0000
  C   C24       1.0  0.98650  0.28260  0.39890  1.0000
  H   H9        1.0  0.05840  0.75430  0.68000  1.0000
  H   H10       1.0  0.94160  0.24570  0.32000  1.0000
  C   C25       1.0  0.09790  0.66970  0.52450  1.0000
  C   C26       1.0  0.90210  0.33030  0.47550  1.0000
  C   C27       1.0  0.02840  0.61070  0.40910  1.0000
  C   C28       1.0  0.97160  0.38930  0.59090  1.0000
  H   H11       1.0  0.08430  0.57170  0.35940  1.0000
  H   H12       1.0  0.91570  0.42830  0.64060  1.0000
  C   C29       1.0  0.56130  0.06610  0.78880  1.0000
  C   C30       1.0  0.43870  0.93390  0.21120  1.0000
  C   C31       1.0  0.57230  0.54490  0.76630  1.0000
  C   C32       1.0  0.42770  0.45510  0.23370  1.0000
  C   C33       1.0  0.76880  0.75620  0.63880  1.0000
  C   C34       1.0  0.23120  0.24380  0.36120  1.0000
  C   C35       1.0  0.26070  0.67530  0.56860  1.0000
  C   C36       1.0  0.73930  0.32470  0.43140  1.0000
  O   O1        1.0  0.57560  0.99180  0.85000  1.0000
  O   O2        1.0  0.42440  0.00820  0.15000  1.0000
  O   O3        1.0  0.52750  0.01030  0.68290  1.0000
  O   O4        1.0  0.47250  0.98970  0.31710  1.0000
  O   O5        1.0  0.59960  0.68000  0.81860  1.0000
  O   O6        1.0  0.40040  0.32000  0.18140  1.0000
  O   O7        1.0  0.52440  0.48430  0.65980  1.0000
  O   O8        1.0  0.47560  0.51570  0.34020  1.0000
  O   O9        1.0  0.82570  0.84130  0.73710  1.0000
  O   O10       1.0  0.17430  0.15870  0.26290  1.0000
  O   O11       1.0  0.63350  0.71230  0.59930  1.0000
  O   O12       1.0  0.36650  0.28770  0.40070  1.0000
  O   O13       1.0  0.32390  0.75640  0.66970  1.0000
  O   O14       1.0  0.67610  0.24360  0.33030  1.0000
  O   O15       1.0  0.32160  0.59600  0.49900  1.0000
  O   O16       1.0  0.67840  0.40400  0.50100  1.0000
  Zn  Zn1       1.0  0.50000  0.50000  0.50000  1.0000
  Zn  Zn2       1.0  0.54071  0.79745  0.72617  1.0000
  Zn  Zn3       1.0  0.45929  0.20255  0.27383  1.0000
