data_image0
_chemical_formula_structural       Eu2O28P4C4H2C2H2C2H2C4H2C2H2C4H2C2H2C4H2C2H2C4H2C2H2C4H2C4H2C4H2C4H2C4H2C8H2C2H2C4H2C2H2C6H2C2H2C4H2C2H2C2Zn2
_chemical_formula_sum              "Eu2 O28 P4 C84 H48 Zn2"
_cell_length_a       14.0792
_cell_length_b       14.146
_cell_length_c       18.4366
_cell_angle_alpha    106.128
_cell_angle_beta     90.991
_cell_angle_gamma    92.777

_space_group_name_H-M_alt    "P 1"
_space_group_IT_number       1

loop_
  _space_group_symop_operation_xyz
  'x, y, z'

loop_
  _atom_site_type_symbol
  _atom_site_label
  _atom_site_symmetry_multiplicity
  _atom_site_fract_x
  _atom_site_fract_y
  _atom_site_fract_z
  _atom_site_occupancy
  Eu  Eu1       1.0  0.25837  0.44893  0.29464  1.0000
  Eu  Eu2       1.0  0.74163  0.55107  0.70536  1.0000
  O   O1        1.0  0.21390  0.56440  0.40440  1.0000
  O   O2        1.0  0.78610  0.43560  0.59560  1.0000
  O   O3        1.0  0.18810  0.55140  0.22270  1.0000
  O   O4        1.0  0.81190  0.44860  0.77730  1.0000
  O   O5        1.0  0.08890  0.45210  0.26080  1.0000
  O   O6        1.0  0.91110  0.54790  0.73920  1.0000
  O   O7        1.0  0.75740  0.69610  0.80380  1.0000
  O   O8        1.0  0.24260  0.30390  0.19620  1.0000
  O   O9        1.0  0.74630  0.85750  0.84340  1.0000
  O   O10       1.0  0.25370  0.14250  0.15660  1.0000
  O   O11       1.0  0.12720  0.96030  0.24080  1.0000
  O   O12       1.0  0.87280  0.03970  0.75920  1.0000
  O   O13       1.0  0.27730  0.02120  0.27930  1.0000
  O   O14       1.0  0.72270  0.97880  0.72070  1.0000
  O   O15       1.0  0.61100  0.78890  0.69340  1.0000
  O   O16       1.0  0.38900  0.21110  0.30660  1.0000
  O   O17       1.0  0.61820  0.62580  0.65690  1.0000
  O   O18       1.0  0.38180  0.37420  0.34310  1.0000
  O   O19       1.0  0.85760  0.81400  0.68640  1.0000
  O   O20       1.0  0.14240  0.18600  0.31360  1.0000
  O   O21       1.0  0.81950  0.65460  0.64280  1.0000
  O   O22       1.0  0.18050  0.34540  0.35720  1.0000
  O   O23       1.0  0.38540  0.46850  0.20990  1.0000
  O   O24       1.0  0.61460  0.53150  0.79010  1.0000
  O   O25       1.0  0.38310  0.58180  0.32060  1.0000
  O   O26       1.0  0.61690  0.41820  0.67940  1.0000
  O   O27       1.0  0.78670  0.86190  0.23350  1.0000
  O   O28       1.0  0.21330  0.13810  0.76650  1.0000
  P   P1        1.0  0.22537  0.66615  0.45854  1.0000
  P   P2        1.0  0.77463  0.33385  0.54146  1.0000
  P   P3        1.0  0.77385  0.76092  0.18155  1.0000
  P   P4        1.0  0.22615  0.23908  0.81845  1.0000
  C   C1        1.0  0.12600  0.68890  0.51940  1.0000
  C   C2        1.0  0.87400  0.31110  0.48060  1.0000
  C   C3        1.0  0.10280  0.77160  0.55740  1.0000
  C   C4        1.0  0.89720  0.22840  0.44260  1.0000
  H   H1        1.0  0.14949  0.82473  0.56703  1.0000
  H   H2        1.0  0.85051  0.17527  0.43297  1.0000
  C   C5        1.0  0.07350  0.61410  0.53030  1.0000
  C   C6        1.0  0.92650  0.38590  0.46970  1.0000
  H   H3        1.0  0.09017  0.54854  0.50706  1.0000
  H   H4        1.0  0.90983  0.45146  0.49294  1.0000
  C   C7        1.0  0.01110  0.79150  0.58740  1.0000
  C   C8        1.0  0.98890  0.20850  0.41260  1.0000
  H   H5        1.0  0.98428  0.85360  0.59431  1.0000
  H   H6        1.0  0.01572  0.14640  0.40569  1.0000
  C   C9        1.0  0.32930  0.67960  0.51780  1.0000
  C   C10       1.0  0.67070  0.32040  0.48220  1.0000
  C   C11       1.0  0.35790  0.76580  0.56820  1.0000
  C   C12       1.0  0.64210  0.23420  0.43180  1.0000
  H   H7        1.0  0.32145  0.82201  0.57395  1.0000
  H   H8        1.0  0.67855  0.17799  0.42605  1.0000
  C   C13       1.0  0.38210  0.60380  0.51430  1.0000
  C   C14       1.0  0.61790  0.39620  0.48570  1.0000
  H   H9        1.0  0.36324  0.54115  0.48099  1.0000
  H   H10       1.0  0.63676  0.45885  0.51901  1.0000
  C   C15       1.0  0.22900  0.76030  0.41420  1.0000
  C   C16       1.0  0.77100  0.23970  0.58580  1.0000
  C   C17       1.0  0.13810  0.76820  0.38010  1.0000
  C   C18       1.0  0.86190  0.23180  0.61990  1.0000
  H   H11       1.0  0.08283  0.73263  0.38928  1.0000
  H   H12       1.0  0.91717  0.26737  0.61072  1.0000
  C   C19       1.0  0.29280  0.79080  0.38380  1.0000
  C   C20       1.0  0.70720  0.20920  0.61620  1.0000
  H   H13       1.0  0.35134  0.76024  0.38435  1.0000
  H   H14       1.0  0.64866  0.23976  0.61565  1.0000
  C   C21       1.0  0.76970  0.76120  0.08500  1.0000
  C   C22       1.0  0.23030  0.23880  0.91500  1.0000
  C   C23       1.0  0.75530  0.84910  0.06800  1.0000
  C   C24       1.0  0.24470  0.15090  0.93200  1.0000
  H   H15       1.0  0.74684  0.90677  0.10805  1.0000
  H   H16       1.0  0.25316  0.09323  0.89195  1.0000
  C   C25       1.0  0.75280  0.85540  0.99470  1.0000
  C   C26       1.0  0.24720  0.14460  0.00530  1.0000
  H   H17       1.0  0.74627  0.91727  0.98486  1.0000
  H   H18       1.0  0.25373  0.08273  0.01514  1.0000
  C   C27       1.0  0.75980  0.77080  0.93510  1.0000
  C   C28       1.0  0.24020  0.22920  0.06490  1.0000
  C   C29       1.0  0.77210  0.68100  0.95160  1.0000
  C   C30       1.0  0.22790  0.31900  0.04840  1.0000
  H   H19       1.0  0.77515  0.62249  0.91129  1.0000
  H   H20       1.0  0.22485  0.37751  0.08871  1.0000
  C   C31       1.0  0.77960  0.67620  0.02310  1.0000
  C   C32       1.0  0.22040  0.32380  0.97690  1.0000
  H   H21       1.0  0.79166  0.61508  0.03253  1.0000
  H   H22       1.0  0.20834  0.38492  0.96747  1.0000
  C   C33       1.0  0.75570  0.77360  0.85540  1.0000
  C   C34       1.0  0.24430  0.22640  0.14460  1.0000
  C   C35       1.0  0.13390  0.83360  0.33050  1.0000
  C   C36       1.0  0.86610  0.16640  0.66950  1.0000
  H   H23       1.0  0.07638  0.84208  0.30593  1.0000
  H   H24       1.0  0.92362  0.15792  0.69407  1.0000
  C   C37       1.0  0.21980  0.88230  0.32170  1.0000
  C   C38       1.0  0.78020  0.11770  0.67830  1.0000
  C   C39       1.0  0.29340  0.86550  0.34750  1.0000
  C   C40       1.0  0.70660  0.13450  0.65250  1.0000
  H   H25       1.0  0.35067  0.90183  0.34352  1.0000
  H   H26       1.0  0.64933  0.09817  0.65648  1.0000
  C   C41       1.0  0.21080  0.95930  0.27750  1.0000
  C   C42       1.0  0.78920  0.04070  0.72250  1.0000
  C   C43       1.0  0.43830  0.77180  0.61040  1.0000
  C   C44       1.0  0.56170  0.22820  0.38960  1.0000
  H   H27       1.0  0.45831  0.83444  0.64328  1.0000
  H   H28       1.0  0.54169  0.16556  0.35672  1.0000
  C   C45       1.0  0.49230  0.69550  0.60920  1.0000
  C   C46       1.0  0.50770  0.30450  0.39080  1.0000
  C   C47       1.0  0.46530  0.61450  0.55880  1.0000
  C   C48       1.0  0.53470  0.38550  0.44120  1.0000
  H   H29       1.0  0.50391  0.55968  0.55178  1.0000
  H   H30       1.0  0.49609  0.44032  0.44822  1.0000
  C   C49       1.0  0.58220  0.70460  0.65760  1.0000
  C   C50       1.0  0.41780  0.29540  0.34240  1.0000
  C   C51       1.0  0.99370  0.63010  0.57560  1.0000
  C   C52       1.0  0.00630  0.36990  0.42440  1.0000
  H   H31       1.0  0.96008  0.57446  0.58409  1.0000
  H   H32       1.0  0.03992  0.42554  0.41591  1.0000
  C   C53       1.0  0.96440  0.71380  0.60550  1.0000
  C   C54       1.0  0.03560  0.28620  0.39450  1.0000
  C   C55       1.0  0.87520  0.72830  0.64830  1.0000
  C   C56       1.0  0.12480  0.27170  0.35170  1.0000
  C   C57       1.0  0.66630  0.69800  0.19900  1.0000
  C   C58       1.0  0.33370  0.30200  0.80100  1.0000
  C   C59       1.0  0.62140  0.73500  0.26520  1.0000
  C   C60       1.0  0.37860  0.26500  0.73480  1.0000
  H   H33       1.0  0.64645  0.79470  0.29944  1.0000
  H   H34       1.0  0.35355  0.20530  0.70056  1.0000
  C   C61       1.0  0.54040  0.68820  0.28430  1.0000
  C   C62       1.0  0.45960  0.31180  0.71570  1.0000
  H   H35       1.0  0.51113  0.71521  0.33096  1.0000
  H   H36       1.0  0.48887  0.28479  0.66904  1.0000
  C   C63       1.0  0.50290  0.60180  0.23450  1.0000
  C   C64       1.0  0.49710  0.39820  0.76550  1.0000
  C   C65       1.0  0.54480  0.56650  0.16900  1.0000
  C   C66       1.0  0.45520  0.43350  0.83100  1.0000
  H   H37       1.0  0.51982  0.50643  0.13516  1.0000
  H   H38       1.0  0.48018  0.49357  0.86484  1.0000
  C   C67       1.0  0.62550  0.61580  0.14810  1.0000
  C   C68       1.0  0.37450  0.38420  0.85190  1.0000
  H   H39       1.0  0.65088  0.59209  0.09938  1.0000
  H   H40       1.0  0.34912  0.40791  0.90062  1.0000
  C   C69       1.0  0.41860  0.54670  0.25590  1.0000
  C   C70       1.0  0.58140  0.45330  0.74410  1.0000
  C   C71       1.0  0.86780  0.68230  0.19150  1.0000
  C   C72       1.0  0.13220  0.31770  0.80850  1.0000
  C   C73       1.0  0.85610  0.59800  0.20870  1.0000
  C   C74       1.0  0.14390  0.40200  0.79130  1.0000
  H   H41       1.0  0.79309  0.57200  0.21108  1.0000
  H   H42       1.0  0.20691  0.42800  0.78892  1.0000
  C   C75       1.0  0.93170  0.54530  0.22360  1.0000
  C   C76       1.0  0.06830  0.45470  0.77640  1.0000
  H   H43       1.0  0.92028  0.48756  0.23956  1.0000
  H   H44       1.0  0.07972  0.51244  0.76044  1.0000
  C   C77       1.0  0.02380  0.57850  0.21470  1.0000
  C   C78       1.0  0.97620  0.42150  0.78530  1.0000
  C   C79       1.0  0.03520  0.65590  0.19020  1.0000
  C   C80       1.0  0.96480  0.34410  0.80980  1.0000
  H   H45       1.0  0.09742  0.67648  0.17964  1.0000
  H   H46       1.0  0.90258  0.32352  0.82036  1.0000
  C   C81       1.0  0.95800  0.71000  0.17890  1.0000
  C   C82       1.0  0.04200  0.29000  0.82110  1.0000
  H   H47       1.0  0.96926  0.76705  0.16201  1.0000
  H   H48       1.0  0.03074  0.23295  0.83799  1.0000
  C   C83       1.0  0.10670  0.52330  0.23290  1.0000
  C   C84       1.0  0.89330  0.47670  0.76710  1.0000
  Zn  Zn1       1.0  0.73655  0.84721  0.73447  1.0000
  Zn  Zn2       1.0  0.26345  0.15279  0.26553  1.0000
