data_image0
_chemical_formula_structural       Sn2K3N12O18S12C2H4C2H4C2H4C2H4C2H4C2H4C2H4C2H4C2H4C2H4C2H4C2H4C2H4C2H4C2H4C2H4C2H4C2H4C24
_chemical_formula_sum              "Sn2 K3 N12 O18 S12 C60 H72"
_cell_length_a       8.558
_cell_length_b       16.535
_cell_length_c       21.16
_cell_angle_alpha    87.95
_cell_angle_beta     88.09
_cell_angle_gamma    80.29

_space_group_name_H-M_alt    "P 1"
_space_group_IT_number       1

loop_
  _space_group_symop_operation_xyz
  'x, y, z'

loop_
  _atom_site_type_symbol
  _atom_site_label
  _atom_site_symmetry_multiplicity
  _atom_site_fract_x
  _atom_site_fract_y
  _atom_site_fract_z
  _atom_site_occupancy
  Sn  Sn1       1.0  0.84614  0.31897  0.76454  1.0000
  Sn  Sn2       1.0  0.15386  0.68103  0.23546  1.0000
  K   K1        1.0  0.71572  0.77026  0.54784  1.0000
  K   K2        1.0  0.28428  0.22974  0.45216  1.0000
  K   K3        1.0  0.50000  0.00000  0.00000  1.0000
  N   N1        1.0  0.64440  0.65590  0.64170  1.0000
  N   N2        1.0  0.35560  0.34410  0.35830  1.0000
  N   N3        1.0  0.24200  0.53610  0.68460  1.0000
  N   N4        1.0  0.75800  0.46390  0.31540  1.0000
  N   N5        1.0  0.74120  0.09850  0.99190  1.0000
  N   N6        1.0  0.25880  0.90150  0.00810  1.0000
  N   N7        1.0  0.82800  0.33630  0.04720  1.0000
  N   N8        1.0  0.17200  0.66370  0.95280  1.0000
  N   N9        1.0  0.18790  0.12060  0.55430  1.0000
  N   N10       1.0  0.81210  0.87940  0.44570  1.0000
  N   N11       1.0  0.52420  0.16870  0.69550  1.0000
  N   N12       1.0  0.47580  0.83130  0.30450  1.0000
  O   O1        1.0  0.86030  0.62520  0.48780  1.0000
  O   O2        1.0  0.13970  0.37480  0.51220  1.0000
  O   O3        1.0  0.56300  0.70820  0.45099  1.0000
  O   O4        1.0  0.43700  0.29180  0.54901  1.0000
  O   O5        1.0  0.39460  0.83200  0.52540  1.0000
  O   O6        1.0  0.60540  0.16800  0.47460  1.0000
  O   O7        1.0  0.58120  0.92060  0.59710  1.0000
  O   O8        1.0  0.41880  0.07940  0.40290  1.0000
  O   O9        1.0  0.87490  0.84210  0.63790  1.0000
  O   O10       1.0  0.12510  0.15790  0.36210  1.0000
  O   O11       1.0  0.03740  0.71180  0.56220  1.0000
  O   O12       1.0  0.96260  0.28820  0.43780  1.0000
  O   O13       1.0  0.69230  0.84725  0.02620  1.0000
  O   O14       1.0  0.30770  0.15275  0.97380  1.0000
  O   O15       1.0  0.66500  0.91060  0.90086  1.0000
  O   O16       1.0  0.33500  0.08940  0.09914  1.0000
  O   O17       1.0  0.42240  0.04320  0.87740  1.0000
  O   O18       1.0  0.57760  0.95680  0.12260  1.0000
  S   S1        1.0  0.84400  0.45812  0.71147  1.0000
  S   S2        1.0  0.15600  0.54188  0.28853  1.0000
  S   S3        1.0  0.56498  0.37668  0.73779  1.0000
  S   S4        1.0  0.43502  0.62332  0.26221  1.0000
  S   S5        1.0  0.78084  0.20386  0.83598  1.0000
  S   S6        1.0  0.21916  0.79614  0.16402  1.0000
  S   S7        1.0  0.84470  0.36292  0.87816  1.0000
  S   S8        1.0  0.15530  0.63708  0.12184  1.0000
  S   S9        1.0  0.91874  0.22937  0.67101  1.0000
  S   S10       1.0  0.08126  0.77063  0.32899  1.0000
  S   S11       1.0  0.14331  0.27997  0.75884  1.0000
  S   S12       1.0  0.85669  0.72003  0.24116  1.0000
  C   C1        1.0  0.79850  0.61490  0.42850  1.0000
  C   C2        1.0  0.20150  0.38510  0.57150  1.0000
  H   H1        1.0  0.83960  0.56030  0.41380  1.0000
  H   H2        1.0  0.16040  0.43970  0.58620  1.0000
  H   H3        1.0  0.83010  0.65460  0.39800  1.0000
  H   H4        1.0  0.16990  0.34540  0.60200  1.0000
  C   C3        1.0  0.62200  0.62650  0.43470  1.0000
  C   C4        1.0  0.37800  0.37350  0.56530  1.0000
  H   H5        1.0  0.57820  0.61480  0.39500  1.0000
  H   H6        1.0  0.42180  0.38520  0.60500  1.0000
  H   H7        1.0  0.59060  0.58900  0.46710  1.0000
  H   H8        1.0  0.40940  0.41100  0.53290  1.0000
  C   C5        1.0  0.39720  0.72380  0.45540  1.0000
  C   C6        1.0  0.60280  0.27620  0.54460  1.0000
  H   H9        1.0  0.36080  0.69120  0.49020  1.0000
  H   H10       1.0  0.63920  0.30880  0.50980  1.0000
  H   H11       1.0  0.35390  0.70840  0.41670  1.0000
  H   H12       1.0  0.64610  0.29160  0.58330  1.0000
  C   C7        1.0  0.34070  0.81250  0.46610  1.0000
  C   C8        1.0  0.65930  0.18750  0.53390  1.0000
  H   H13       1.0  0.38150  0.84540  0.43260  1.0000
  H   H14       1.0  0.61850  0.15460  0.56740  1.0000
  H   H15       1.0  0.22580  0.82410  0.46590  1.0000
  H   H16       1.0  0.77420  0.17590  0.53410  1.0000
  C   C9        1.0  0.35260  0.91670  0.53880  1.0000
  C   C10       1.0  0.64740  0.08330  0.46120  1.0000
  H   H17       1.0  0.23820  0.93250  0.53940  1.0000
  H   H18       1.0  0.76180  0.06750  0.46060  1.0000
  H   H19       1.0  0.39690  0.94960  0.50610  1.0000
  H   H20       1.0  0.60310  0.05040  0.49390  1.0000
  C   C11       1.0  0.41470  0.93160  0.60120  1.0000
  C   C12       1.0  0.58530  0.06840  0.39880  1.0000
  H   H21       1.0  0.37270  0.98710  0.61370  1.0000
  H   H22       1.0  0.62730  0.01290  0.38630  1.0000
  H   H23       1.0  0.38140  0.89370  0.63290  1.0000
  H   H24       1.0  0.61860  0.10630  0.36710  1.0000
  C   C13       1.0  0.65160  0.94100  0.65250  1.0000
  C   C14       1.0  0.34840  0.05900  0.34750  1.0000
  H   H25       1.0  0.62150  0.90790  0.68820  1.0000
  H   H26       1.0  0.37850  0.09210  0.31180  1.0000
  H   H27       1.0  0.61490  0.99830  0.66150  1.0000
  H   H28       1.0  0.38510  0.00170  0.33850  1.0000
  C   C15       1.0  0.82450  0.92620  0.64340  1.0000
  C   C16       1.0  0.17550  0.07380  0.35660  1.0000
  H   H29       1.0  0.85440  0.95520  0.60550  1.0000
  H   H30       1.0  0.14560  0.04480  0.39450  1.0000
  H   H31       1.0  0.87370  0.94580  0.67920  1.0000
  H   H32       1.0  0.12630  0.05420  0.32080  1.0000
  C   C17       1.0  0.03960  0.82080  0.63080  1.0000
  C   C18       1.0  0.96040  0.17920  0.36920  1.0000
  H   H33       1.0  0.08930  0.83610  0.66810  1.0000
  H   H34       1.0  0.91070  0.16390  0.33190  1.0000
  H   H35       1.0  0.07620  0.85090  0.59460  1.0000
  H   H36       1.0  0.92380  0.14910  0.40540  1.0000
  C   C19       1.0  0.08730  0.73170  0.62160  1.0000
  C   C20       1.0  0.91270  0.26830  0.37840  1.0000
  H   H37       1.0  0.20160  0.71690  0.62380  1.0000
  H   H38       1.0  0.79840  0.28310  0.37620  1.0000
  H   H39       1.0  0.03960  0.70120  0.65480  1.0000
  H   H40       1.0  0.96040  0.29880  0.34520  1.0000
  C   C21       1.0  0.07880  0.62700  0.55090  1.0000
  C   C22       1.0  0.92120  0.37300  0.44910  1.0000
  H   H41       1.0  0.02660  0.59530  0.58200  1.0000
  H   H42       1.0  0.97340  0.40470  0.41800  1.0000
  H   H43       1.0  0.19250  0.60970  0.55360  1.0000
  H   H44       1.0  0.80750  0.39030  0.44640  1.0000
  C   C23       1.0  0.02670  0.61380  0.48640  1.0000
  C   C24       1.0  0.97330  0.38620  0.51360  1.0000
  H   H45       1.0  0.06390  0.65250  0.45640  1.0000
  H   H46       1.0  0.93610  0.34750  0.54360  1.0000
  H   H47       1.0  0.07010  0.55870  0.47350  1.0000
  H   H48       1.0  0.92990  0.44130  0.52650  1.0000
  C   C25       1.0  0.80090  0.82100  0.97710  1.0000
  C   C26       1.0  0.19910  0.17900  0.02290  1.0000
  H   H49       1.0  0.85060  0.76470  0.98560  1.0000
  H   H50       1.0  0.14940  0.23530  0.01440  1.0000
  H   H51       1.0  0.88320  0.85490  0.97450  1.0000
  H   H52       1.0  0.11680  0.14510  0.02550  1.0000
  C   C27       1.0  0.71870  0.82680  0.91610  1.0000
  C   C28       1.0  0.28130  0.17320  0.08390  1.0000
  H   H53       1.0  0.79090  0.80230  0.88310  1.0000
  H   H54       1.0  0.20910  0.19770  0.11690  1.0000
  H   H55       1.0  0.62950  0.79750  0.91970  1.0000
  H   H56       1.0  0.37050  0.20250  0.08030  1.0000
  C   C29       1.0  0.58790  0.92380  0.84380  1.0000
  C   C30       1.0  0.41210  0.07620  0.15620  1.0000
  H   H57       1.0  0.49540  0.89700  0.84540  1.0000
  H   H58       1.0  0.50460  0.10300  0.15460  1.0000
  H   H59       1.0  0.65830  0.90050  0.80980  1.0000
  H   H60       1.0  0.34170  0.09950  0.19020  1.0000
  C   C31       1.0  0.53900  0.01270  0.83140  1.0000
  C   C32       1.0  0.46100  0.98730  0.16860  1.0000
  H   H61       1.0  0.62980  0.04040  0.83360  1.0000
  H   H62       1.0  0.37020  0.95960  0.16640  1.0000
  H   H63       1.0  0.49630  0.02250  0.78940  1.0000
  H   H64       1.0  0.50370  0.97750  0.21060  1.0000
  C   C33       1.0  0.35890  0.12600  0.86600  1.0000
  C   C34       1.0  0.64110  0.87400  0.13400  1.0000
  H   H65       1.0  0.31340  0.13310  0.82440  1.0000
  H   H66       1.0  0.68660  0.86690  0.17560  1.0000
  H   H67       1.0  0.44240  0.15900  0.86710  1.0000
  H   H68       1.0  0.55760  0.84100  0.13290  1.0000
  C   C35       1.0  0.23450  0.15360  0.91500  1.0000
  C   C36       1.0  0.76550  0.84640  0.08500  1.0000
  H   H69       1.0  0.18080  0.20850  0.90430  1.0000
  H   H70       1.0  0.81920  0.79150  0.09570  1.0000
  H   H71       1.0  0.15660  0.11710  0.91710  1.0000
  H   H72       1.0  0.84340  0.88290  0.08290  1.0000
  C   C37       1.0  0.64160  0.46230  0.70920  1.0000
  C   C38       1.0  0.35840  0.53770  0.29080  1.0000
  C   C39       1.0  0.54290  0.52880  0.68560  1.0000
  C   C40       1.0  0.45710  0.47120  0.31440  1.0000
  C   C41       1.0  0.60170  0.59750  0.66150  1.0000
  C   C42       1.0  0.39830  0.40250  0.33850  1.0000
  C   C43       1.0  0.37500  0.53210  0.68490  1.0000
  C   C44       1.0  0.62500  0.46790  0.31510  1.0000
  C   C45       1.0  0.80440  0.26720  0.89730  1.0000
  C   C46       1.0  0.19560  0.73280  0.10270  1.0000
  C   C47       1.0  0.79060  0.24120  0.95860  1.0000
  C   C48       1.0  0.20940  0.75880  0.04140  1.0000
  C   C49       1.0  0.76100  0.16140  0.97640  1.0000
  C   C50       1.0  0.23900  0.83860  0.02360  1.0000
  C   C51       1.0  0.81000  0.29390  0.00850  1.0000
  C   C52       1.0  0.19000  0.70610  0.99150  1.0000
  C   C53       1.0  0.11130  0.22740  0.69350  1.0000
  C   C54       1.0  0.88870  0.77260  0.30650  1.0000
  C   C55       1.0  0.23530  0.18460  0.65930  1.0000
  C   C56       1.0  0.76470  0.81540  0.34070  1.0000
  C   C57       1.0  0.20920  0.14780  0.60150  1.0000
  C   C58       1.0  0.79080  0.85220  0.39850  1.0000
  C   C59       1.0  0.39640  0.17680  0.67910  1.0000
  C   C60       1.0  0.60360  0.82320  0.32090  1.0000
