data_image0
_chemical_formula_structural       Cd12O64C24H8C24H8C16H8C16H8C8H8C24H8C24H8C24H8C8H8C8H8
_chemical_formula_sum              "Cd12 O64 C176 H80"
_cell_length_a       28.16
_cell_length_b       9.8749
_cell_length_c       20.631
_cell_angle_alpha    90
_cell_angle_beta     107.217
_cell_angle_gamma    90

_space_group_name_H-M_alt    "P 1"
_space_group_IT_number       1

loop_
  _space_group_symop_operation_xyz
  'x, y, z'

loop_
  _atom_site_type_symbol
  _atom_site_label
  _atom_site_symmetry_multiplicity
  _atom_site_fract_x
  _atom_site_fract_y
  _atom_site_fract_z
  _atom_site_occupancy
  Cd  Cd1       1.0  0.00000  0.56962  0.75000  1.0000
  Cd  Cd2       1.0  0.50000  0.06962  0.75000  1.0000
  Cd  Cd3       1.0  0.00000  0.43038  0.25000  1.0000
  Cd  Cd4       1.0  0.50000  0.93038  0.25000  1.0000
  Cd  Cd5       1.0  0.90026  0.56710  0.60280  1.0000
  Cd  Cd6       1.0  0.09974  0.56710  0.89720  1.0000
  Cd  Cd7       1.0  0.40026  0.06710  0.60280  1.0000
  Cd  Cd8       1.0  0.59974  0.06710  0.89720  1.0000
  Cd  Cd9       1.0  0.09974  0.43290  0.39720  1.0000
  Cd  Cd10      1.0  0.90026  0.43290  0.10280  1.0000
  Cd  Cd11      1.0  0.59974  0.93290  0.39720  1.0000
  Cd  Cd12      1.0  0.40026  0.93290  0.10280  1.0000
  O   O1        1.0  0.92660  0.56930  0.76850  1.0000
  O   O2        1.0  0.07340  0.56930  0.73150  1.0000
  O   O3        1.0  0.42660  0.06930  0.76850  1.0000
  O   O4        1.0  0.57340  0.06930  0.73150  1.0000
  O   O5        1.0  0.07340  0.43070  0.23150  1.0000
  O   O6        1.0  0.92660  0.43070  0.26850  1.0000
  O   O7        1.0  0.57340  0.93070  0.23150  1.0000
  O   O8        1.0  0.42660  0.93070  0.26850  1.0000
  O   O9        1.0  0.85890  0.57540  0.67770  1.0000
  O   O10       1.0  0.14110  0.57540  0.82230  1.0000
  O   O11       1.0  0.35890  0.07540  0.67770  1.0000
  O   O12       1.0  0.64110  0.07540  0.82230  1.0000
  O   O13       1.0  0.14110  0.42460  0.32230  1.0000
  O   O14       1.0  0.85890  0.42460  0.17770  1.0000
  O   O15       1.0  0.64110  0.92460  0.32230  1.0000
  O   O16       1.0  0.35890  0.92460  0.17770  1.0000
  O   O17       1.0  0.83270  0.44510  0.00440  1.0000
  O   O18       1.0  0.16730  0.44510  0.49560  1.0000
  O   O19       1.0  0.33270  0.94510  0.00440  1.0000
  O   O20       1.0  0.66730  0.94510  0.49560  1.0000
  O   O21       1.0  0.16730  0.55490  0.99560  1.0000
  O   O22       1.0  0.83270  0.55490  0.50440  1.0000
  O   O23       1.0  0.66730  0.05490  0.99560  1.0000
  O   O24       1.0  0.33270  0.05490  0.50440  1.0000
  O   O25       1.0  0.90760  0.45320  0.99220  1.0000
  O   O26       1.0  0.09240  0.45320  0.50780  1.0000
  O   O27       1.0  0.40760  0.95320  0.99220  1.0000
  O   O28       1.0  0.59240  0.95320  0.50780  1.0000
  O   O29       1.0  0.09240  0.54680  0.00780  1.0000
  O   O30       1.0  0.90760  0.54680  0.49220  1.0000
  O   O31       1.0  0.59240  0.04680  0.00780  1.0000
  O   O32       1.0  0.40760  0.04680  0.49220  1.0000
  O   O33       1.0  0.46810  0.21080  0.65740  1.0000
  O   O34       1.0  0.53190  0.21080  0.84260  1.0000
  O   O35       1.0  0.96810  0.71080  0.65740  1.0000
  O   O36       1.0  0.03190  0.71080  0.84260  1.0000
  O   O37       1.0  0.53190  0.78920  0.34260  1.0000
  O   O38       1.0  0.46810  0.78920  0.15740  1.0000
  O   O39       1.0  0.03190  0.28920  0.34260  1.0000
  O   O40       1.0  0.96810  0.28920  0.15740  1.0000
  O   O41       1.0  0.40310  0.31260  0.59540  1.0000
  O   O42       1.0  0.59690  0.31260  0.90460  1.0000
  O   O43       1.0  0.90310  0.81260  0.59540  1.0000
  O   O44       1.0  0.09690  0.81260  0.90460  1.0000
  O   O45       1.0  0.59690  0.68740  0.40460  1.0000
  O   O46       1.0  0.40310  0.68740  0.09540  1.0000
  O   O47       1.0  0.09690  0.18740  0.40460  1.0000
  O   O48       1.0  0.90310  0.18740  0.09540  1.0000
  O   O49       1.0  0.47190  0.92670  0.66020  1.0000
  O   O50       1.0  0.52810  0.92670  0.83980  1.0000
  O   O51       1.0  0.97190  0.42670  0.66020  1.0000
  O   O52       1.0  0.02810  0.42670  0.83980  1.0000
  O   O53       1.0  0.52810  0.07330  0.33980  1.0000
  O   O54       1.0  0.47190  0.07330  0.16020  1.0000
  O   O55       1.0  0.02810  0.57330  0.33980  1.0000
  O   O56       1.0  0.97190  0.57330  0.16020  1.0000
  O   O57       1.0  0.40400  0.82530  0.60410  1.0000
  O   O58       1.0  0.59600  0.82530  0.89590  1.0000
  O   O59       1.0  0.90400  0.32530  0.60410  1.0000
  O   O60       1.0  0.09600  0.32530  0.89590  1.0000
  O   O61       1.0  0.59600  0.17470  0.39590  1.0000
  O   O62       1.0  0.40400  0.17470  0.10410  1.0000
  O   O63       1.0  0.09600  0.67470  0.39590  1.0000
  O   O64       1.0  0.90400  0.67470  0.10410  1.0000
  C   C1        1.0  0.88090  0.57050  0.74060  1.0000
  C   C2        1.0  0.11910  0.57050  0.75940  1.0000
  C   C3        1.0  0.38090  0.07050  0.74060  1.0000
  C   C4        1.0  0.61910  0.07050  0.75940  1.0000
  C   C5        1.0  0.11910  0.42950  0.25940  1.0000
  C   C6        1.0  0.88090  0.42950  0.24060  1.0000
  C   C7        1.0  0.61910  0.92950  0.25940  1.0000
  C   C8        1.0  0.38090  0.92950  0.24060  1.0000
  C   C9        1.0  0.84790  0.54730  0.78630  1.0000
  C   C10       1.0  0.15210  0.54730  0.71370  1.0000
  C   C11       1.0  0.34790  0.04730  0.78630  1.0000
  C   C12       1.0  0.65210  0.04730  0.71370  1.0000
  C   C13       1.0  0.15210  0.45270  0.21370  1.0000
  C   C14       1.0  0.84790  0.45270  0.28630  1.0000
  C   C15       1.0  0.65210  0.95270  0.21370  1.0000
  C   C16       1.0  0.34790  0.95270  0.28630  1.0000
  C   C17       1.0  0.86870  0.51470  0.85340  1.0000
  C   C18       1.0  0.13130  0.51470  0.64660  1.0000
  C   C19       1.0  0.36870  0.01470  0.85340  1.0000
  C   C20       1.0  0.63130  0.01470  0.64660  1.0000
  C   C21       1.0  0.13130  0.48530  0.14660  1.0000
  C   C22       1.0  0.86870  0.48530  0.35340  1.0000
  C   C23       1.0  0.63130  0.98530  0.14660  1.0000
  C   C24       1.0  0.36870  0.98530  0.35340  1.0000
  H   H1        1.0  0.90302  0.50791  0.87094  1.0000
  H   H2        1.0  0.09698  0.50791  0.62906  1.0000
  H   H3        1.0  0.40302  0.00791  0.87094  1.0000
  H   H4        1.0  0.59698  0.00791  0.62906  1.0000
  H   H5        1.0  0.09698  0.49209  0.12906  1.0000
  H   H6        1.0  0.90302  0.49209  0.37094  1.0000
  H   H7        1.0  0.59698  0.99209  0.12906  1.0000
  H   H8        1.0  0.40302  0.99209  0.37094  1.0000
  C   C25       1.0  0.83910  0.49190  0.89500  1.0000
  C   C26       1.0  0.16090  0.49190  0.60500  1.0000
  C   C27       1.0  0.33910  0.99190  0.89500  1.0000
  C   C28       1.0  0.66090  0.99190  0.60500  1.0000
  C   C29       1.0  0.16090  0.50810  0.10500  1.0000
  C   C30       1.0  0.83910  0.50810  0.39500  1.0000
  C   C31       1.0  0.66090  0.00810  0.10500  1.0000
  C   C32       1.0  0.33910  0.00810  0.39500  1.0000
  C   C33       1.0  0.86140  0.45920  0.96840  1.0000
  C   C34       1.0  0.13860  0.45920  0.53160  1.0000
  C   C35       1.0  0.36140  0.95920  0.96840  1.0000
  C   C36       1.0  0.63860  0.95920  0.53160  1.0000
  C   C37       1.0  0.13860  0.54080  0.03160  1.0000
  C   C38       1.0  0.86140  0.54080  0.46840  1.0000
  C   C39       1.0  0.63860  0.04080  0.03160  1.0000
  C   C40       1.0  0.36140  0.04080  0.46840  1.0000
  C   C41       1.0  0.78740  0.50000  0.86870  1.0000
  C   C42       1.0  0.21260  0.50000  0.63130  1.0000
  C   C43       1.0  0.28740  0.00000  0.86870  1.0000
  C   C44       1.0  0.71260  0.00000  0.63130  1.0000
  C   C45       1.0  0.21260  0.50000  0.13130  1.0000
  C   C46       1.0  0.78740  0.50000  0.36870  1.0000
  C   C47       1.0  0.71260  0.00000  0.13130  1.0000
  C   C48       1.0  0.28740  0.00000  0.36870  1.0000
  H   H9        1.0  0.76743  0.48373  0.89652  1.0000
  H   H10       1.0  0.23257  0.48373  0.60348  1.0000
  H   H11       1.0  0.26743  0.98373  0.89652  1.0000
  H   H12       1.0  0.73257  0.98373  0.60348  1.0000
  H   H13       1.0  0.23257  0.51627  0.10348  1.0000
  H   H14       1.0  0.76743  0.51627  0.39652  1.0000
  H   H15       1.0  0.73257  0.01627  0.10348  1.0000
  H   H16       1.0  0.26743  0.01627  0.39652  1.0000
  C   C49       1.0  0.76580  0.53250  0.80050  1.0000
  C   C50       1.0  0.23420  0.53250  0.69950  1.0000
  C   C51       1.0  0.26580  0.03250  0.80050  1.0000
  C   C52       1.0  0.73420  0.03250  0.69950  1.0000
  C   C53       1.0  0.23420  0.46750  0.19950  1.0000
  C   C54       1.0  0.76580  0.46750  0.30050  1.0000
  C   C55       1.0  0.73420  0.96750  0.19950  1.0000
  C   C56       1.0  0.26580  0.96750  0.30050  1.0000
  C   C57       1.0  0.79610  0.55660  0.75980  1.0000
  C   C58       1.0  0.20390  0.55660  0.74020  1.0000
  C   C59       1.0  0.29610  0.05660  0.75980  1.0000
  C   C60       1.0  0.70390  0.05660  0.74020  1.0000
  C   C61       1.0  0.20390  0.44340  0.24020  1.0000
  C   C62       1.0  0.79610  0.44340  0.25980  1.0000
  C   C63       1.0  0.70390  0.94340  0.24020  1.0000
  C   C64       1.0  0.29610  0.94340  0.25980  1.0000
  H   H17       1.0  0.78198  0.57927  0.71444  1.0000
  H   H18       1.0  0.21802  0.57927  0.78556  1.0000
  H   H19       1.0  0.28198  0.07927  0.71444  1.0000
  H   H20       1.0  0.71802  0.07927  0.78556  1.0000
  H   H21       1.0  0.21802  0.42073  0.28556  1.0000
  H   H22       1.0  0.78198  0.42073  0.21444  1.0000
  H   H23       1.0  0.71802  0.92073  0.28556  1.0000
  H   H24       1.0  0.28198  0.92073  0.21444  1.0000
  C   C65       1.0  0.71120  0.54130  0.77090  1.0000
  C   C66       1.0  0.28880  0.54130  0.72910  1.0000
  C   C67       1.0  0.21120  0.04130  0.77090  1.0000
  C   C68       1.0  0.78880  0.04130  0.72910  1.0000
  C   C69       1.0  0.28880  0.45870  0.22910  1.0000
  C   C70       1.0  0.71120  0.45870  0.27090  1.0000
  C   C71       1.0  0.78880  0.95870  0.22910  1.0000
  C   C72       1.0  0.21120  0.95870  0.27090  1.0000
  C   C73       1.0  0.68180  0.44770  0.78950  1.0000
  C   C74       1.0  0.31820  0.44770  0.71050  1.0000
  C   C75       1.0  0.18180  0.94770  0.78950  1.0000
  C   C76       1.0  0.81820  0.94770  0.71050  1.0000
  C   C77       1.0  0.31820  0.55230  0.21050  1.0000
  C   C78       1.0  0.68180  0.55230  0.28950  1.0000
  C   C79       1.0  0.81820  0.05230  0.21050  1.0000
  C   C80       1.0  0.18180  0.05230  0.28950  1.0000
  H   H25       1.0  0.69655  0.38025  0.82038  1.0000
  H   H26       1.0  0.30345  0.38025  0.67962  1.0000
  H   H27       1.0  0.19655  0.88025  0.82038  1.0000
  H   H28       1.0  0.80345  0.88025  0.67962  1.0000
  H   H29       1.0  0.30345  0.61975  0.17962  1.0000
  H   H30       1.0  0.69655  0.61975  0.32038  1.0000
  H   H31       1.0  0.80345  0.11975  0.17962  1.0000
  H   H32       1.0  0.19655  0.11975  0.32038  1.0000
  C   C81       1.0  0.62970  0.45210  0.76290  1.0000
  C   C82       1.0  0.37030  0.45210  0.73710  1.0000
  C   C83       1.0  0.12970  0.95210  0.76290  1.0000
  C   C84       1.0  0.87030  0.95210  0.73710  1.0000
  C   C85       1.0  0.37030  0.54790  0.23710  1.0000
  C   C86       1.0  0.62970  0.54790  0.26290  1.0000
  C   C87       1.0  0.87030  0.04790  0.23710  1.0000
  C   C88       1.0  0.12970  0.04790  0.26290  1.0000
  H   H33       1.0  0.61051  0.38339  0.77310  1.0000
  H   H34       1.0  0.38949  0.38339  0.72690  1.0000
  H   H35       1.0  0.11051  0.88339  0.77310  1.0000
  H   H36       1.0  0.88949  0.88339  0.72690  1.0000
  H   H37       1.0  0.38949  0.61661  0.22690  1.0000
  H   H38       1.0  0.61051  0.61661  0.27310  1.0000
  H   H39       1.0  0.88949  0.11661  0.22690  1.0000
  H   H40       1.0  0.11051  0.11661  0.27310  1.0000
  C   C89       1.0  0.60640  0.56060  0.72050  1.0000
  C   C90       1.0  0.39360  0.56060  0.77950  1.0000
  C   C91       1.0  0.10640  0.06060  0.72050  1.0000
  C   C92       1.0  0.89360  0.06060  0.77950  1.0000
  C   C93       1.0  0.39360  0.43940  0.27950  1.0000
  C   C94       1.0  0.60640  0.43940  0.22050  1.0000
  C   C95       1.0  0.89360  0.93940  0.27950  1.0000
  C   C96       1.0  0.10640  0.93940  0.22050  1.0000
  C   C97       1.0  0.55160  0.56510  0.69250  1.0000
  C   C98       1.0  0.44840  0.56510  0.80750  1.0000
  C   C99       1.0  0.05160  0.06510  0.69250  1.0000
  C   C100      1.0  0.94840  0.06510  0.80750  1.0000
  C   C101      1.0  0.44840  0.43490  0.30750  1.0000
  C   C102      1.0  0.55160  0.43490  0.19250  1.0000
  C   C103      1.0  0.94840  0.93490  0.30750  1.0000
  C   C104      1.0  0.05160  0.93490  0.19250  1.0000
  C   C105      1.0  0.52500  0.44230  0.67760  1.0000
  C   C106      1.0  0.47500  0.44230  0.82240  1.0000
  C   C107      1.0  0.02500  0.94230  0.67760  1.0000
  C   C108      1.0  0.97500  0.94230  0.82240  1.0000
  C   C109      1.0  0.47500  0.55770  0.32240  1.0000
  C   C110      1.0  0.52500  0.55770  0.17760  1.0000
  C   C111      1.0  0.97500  0.05770  0.32240  1.0000
  C   C112      1.0  0.02500  0.05770  0.17760  1.0000
  H   H41       1.0  0.54140  0.35947  0.68614  1.0000
  H   H42       1.0  0.45860  0.35947  0.81386  1.0000
  H   H43       1.0  0.04140  0.85947  0.68614  1.0000
  H   H44       1.0  0.95860  0.85947  0.81386  1.0000
  H   H45       1.0  0.45860  0.64053  0.31386  1.0000
  H   H46       1.0  0.54140  0.64053  0.18614  1.0000
  H   H47       1.0  0.95860  0.14053  0.31386  1.0000
  H   H48       1.0  0.04140  0.14053  0.18614  1.0000
  C   C113      1.0  0.47300  0.44860  0.64940  1.0000
  C   C114      1.0  0.52700  0.44860  0.85060  1.0000
  C   C115      1.0  0.97300  0.94860  0.64940  1.0000
  C   C116      1.0  0.02700  0.94860  0.85060  1.0000
  C   C117      1.0  0.52700  0.55140  0.35060  1.0000
  C   C118      1.0  0.47300  0.55140  0.14940  1.0000
  C   C119      1.0  0.02700  0.05140  0.35060  1.0000
  C   C120      1.0  0.97300  0.05140  0.14940  1.0000
  C   C121      1.0  0.44670  0.31540  0.63360  1.0000
  C   C122      1.0  0.55330  0.31540  0.86640  1.0000
  C   C123      1.0  0.94670  0.81540  0.63360  1.0000
  C   C124      1.0  0.05330  0.81540  0.86640  1.0000
  C   C125      1.0  0.55330  0.68460  0.36640  1.0000
  C   C126      1.0  0.44670  0.68460  0.13360  1.0000
  C   C127      1.0  0.05330  0.18460  0.36640  1.0000
  C   C128      1.0  0.94670  0.18460  0.13360  1.0000
  C   C129      1.0  0.44850  0.57310  0.63610  1.0000
  C   C130      1.0  0.55150  0.57310  0.86390  1.0000
  C   C131      1.0  0.94850  0.07310  0.63610  1.0000
  C   C132      1.0  0.05150  0.07310  0.86390  1.0000
  C   C133      1.0  0.55150  0.42690  0.36390  1.0000
  C   C134      1.0  0.44850  0.42690  0.13610  1.0000
  C   C135      1.0  0.05150  0.92690  0.36390  1.0000
  C   C136      1.0  0.94850  0.92690  0.13610  1.0000
  H   H49       1.0  0.41421  0.57568  0.61687  1.0000
  H   H50       1.0  0.58579  0.57568  0.88313  1.0000
  H   H51       1.0  0.91421  0.07568  0.61687  1.0000
  H   H52       1.0  0.08579  0.07568  0.88313  1.0000
  H   H53       1.0  0.58579  0.42432  0.38313  1.0000
  H   H54       1.0  0.41421  0.42432  0.11687  1.0000
  H   H55       1.0  0.08579  0.92432  0.38313  1.0000
  H   H56       1.0  0.91421  0.92432  0.11687  1.0000
  C   C137      1.0  0.47480  0.69090  0.65130  1.0000
  C   C138      1.0  0.52520  0.69090  0.84870  1.0000
  C   C139      1.0  0.97480  0.19090  0.65130  1.0000
  C   C140      1.0  0.02520  0.19090  0.84870  1.0000
  C   C141      1.0  0.52520  0.30910  0.34870  1.0000
  C   C142      1.0  0.47480  0.30910  0.15130  1.0000
  C   C143      1.0  0.02520  0.80910  0.34870  1.0000
  C   C144      1.0  0.97480  0.80910  0.15130  1.0000
  C   C145      1.0  0.44900  0.82020  0.63870  1.0000
  C   C146      1.0  0.55100  0.82020  0.86130  1.0000
  C   C147      1.0  0.94900  0.32020  0.63870  1.0000
  C   C148      1.0  0.05100  0.32020  0.86130  1.0000
  C   C149      1.0  0.55100  0.17980  0.36130  1.0000
  C   C150      1.0  0.44900  0.17980  0.13870  1.0000
  C   C151      1.0  0.05100  0.67980  0.36130  1.0000
  C   C152      1.0  0.94900  0.67980  0.13870  1.0000
  C   C153      1.0  0.52590  0.68750  0.67950  1.0000
  C   C154      1.0  0.47410  0.68750  0.82050  1.0000
  C   C155      1.0  0.02590  0.18750  0.67950  1.0000
  C   C156      1.0  0.97410  0.18750  0.82050  1.0000
  C   C157      1.0  0.47410  0.31250  0.32050  1.0000
  C   C158      1.0  0.52590  0.31250  0.17950  1.0000
  C   C159      1.0  0.97410  0.81250  0.32050  1.0000
  C   C160      1.0  0.02590  0.81250  0.17950  1.0000
  H   H57       1.0  0.54333  0.76848  0.69005  1.0000
  H   H58       1.0  0.45667  0.76848  0.80995  1.0000
  H   H59       1.0  0.04333  0.26848  0.69005  1.0000
  H   H60       1.0  0.95667  0.26848  0.80995  1.0000
  H   H61       1.0  0.45667  0.23152  0.30995  1.0000
  H   H62       1.0  0.54333  0.23152  0.19005  1.0000
  H   H63       1.0  0.95667  0.73152  0.30995  1.0000
  H   H64       1.0  0.04333  0.73152  0.19005  1.0000
  C   C161      1.0  0.63760  0.65400  0.70380  1.0000
  C   C162      1.0  0.36240  0.65400  0.79620  1.0000
  C   C163      1.0  0.13760  0.15400  0.70380  1.0000
  C   C164      1.0  0.86240  0.15400  0.79620  1.0000
  C   C165      1.0  0.36240  0.34600  0.29620  1.0000
  C   C166      1.0  0.63760  0.34600  0.20380  1.0000
  C   C167      1.0  0.86240  0.84600  0.29620  1.0000
  C   C168      1.0  0.13760  0.84600  0.20380  1.0000
  H   H65       1.0  0.62389  0.72553  0.67502  1.0000
  H   H66       1.0  0.37611  0.72553  0.82498  1.0000
  H   H67       1.0  0.12389  0.22553  0.67502  1.0000
  H   H68       1.0  0.87611  0.22553  0.82498  1.0000
  H   H69       1.0  0.37611  0.27447  0.32498  1.0000
  H   H70       1.0  0.62389  0.27447  0.17502  1.0000
  H   H71       1.0  0.87611  0.77447  0.32498  1.0000
  H   H72       1.0  0.12389  0.77447  0.17502  1.0000
  C   C169      1.0  0.68690  0.64310  0.72840  1.0000
  C   C170      1.0  0.31310  0.64310  0.77160  1.0000
  C   C171      1.0  0.18690  0.14310  0.72840  1.0000
  C   C172      1.0  0.81310  0.14310  0.77160  1.0000
  C   C173      1.0  0.31310  0.35690  0.27160  1.0000
  C   C174      1.0  0.68690  0.35690  0.22840  1.0000
  C   C175      1.0  0.81310  0.85690  0.27160  1.0000
  C   C176      1.0  0.18690  0.85690  0.22840  1.0000
  H   H73       1.0  0.70613  0.70892  0.71592  1.0000
  H   H74       1.0  0.29387  0.70892  0.78408  1.0000
  H   H75       1.0  0.20613  0.20892  0.71592  1.0000
  H   H76       1.0  0.79387  0.20892  0.78408  1.0000
  H   H77       1.0  0.29387  0.29108  0.28408  1.0000
  H   H78       1.0  0.70613  0.29108  0.21592  1.0000
  H   H79       1.0  0.79387  0.79108  0.28408  1.0000
  H   H80       1.0  0.20613  0.79108  0.21592  1.0000
