data_image0
_chemical_formula_structural       Cd8O64C64H32C64H32
_chemical_formula_sum              "Cd8 O64 C128 H64"
_cell_length_a       9.7678
_cell_length_b       21.175
_cell_length_c       27.8937
_cell_angle_alpha    90
_cell_angle_beta     90
_cell_angle_gamma    90

_space_group_name_H-M_alt    "P 1"
_space_group_IT_number       1

loop_
  _space_group_symop_operation_xyz
  'x, y, z'

loop_
  _atom_site_type_symbol
  _atom_site_label
  _atom_site_symmetry_multiplicity
  _atom_site_fract_x
  _atom_site_fract_y
  _atom_site_fract_z
  _atom_site_occupancy
  Cd  Cd1       1.0  0.12500  0.62500  0.62500  1.0000
  Cd  Cd2       1.0  0.62500  0.12500  0.62500  1.0000
  Cd  Cd3       1.0  0.62500  0.62500  0.12500  1.0000
  Cd  Cd4       1.0  0.12500  0.12500  0.12500  1.0000
  Cd  Cd5       1.0  0.87500  0.37500  0.37500  1.0000
  Cd  Cd6       1.0  0.37500  0.87500  0.37500  1.0000
  Cd  Cd7       1.0  0.37500  0.37500  0.87500  1.0000
  Cd  Cd8       1.0  0.87500  0.87500  0.87500  1.0000
  O   O1        1.0  0.01590  0.53690  0.66080  1.0000
  O   O2        1.0  0.73410  0.21310  0.66080  1.0000
  O   O3        1.0  0.73410  0.53690  0.08920  1.0000
  O   O4        1.0  0.01590  0.21310  0.08920  1.0000
  O   O5        1.0  0.01590  0.03690  0.16080  1.0000
  O   O6        1.0  0.73410  0.71310  0.16080  1.0000
  O   O7        1.0  0.73410  0.03690  0.58920  1.0000
  O   O8        1.0  0.01590  0.71310  0.58920  1.0000
  O   O9        1.0  0.51590  0.53690  0.16080  1.0000
  O   O10       1.0  0.23410  0.21310  0.16080  1.0000
  O   O11       1.0  0.23410  0.53690  0.58920  1.0000
  O   O12       1.0  0.51590  0.21310  0.58920  1.0000
  O   O13       1.0  0.51590  0.03690  0.66080  1.0000
  O   O14       1.0  0.23410  0.71310  0.66080  1.0000
  O   O15       1.0  0.23410  0.03690  0.08920  1.0000
  O   O16       1.0  0.51590  0.71310  0.08920  1.0000
  O   O17       1.0  0.98410  0.46310  0.33920  1.0000
  O   O18       1.0  0.26590  0.78690  0.33920  1.0000
  O   O19       1.0  0.26590  0.46310  0.91080  1.0000
  O   O20       1.0  0.98410  0.78690  0.91080  1.0000
  O   O21       1.0  0.98410  0.96310  0.83920  1.0000
  O   O22       1.0  0.26590  0.28690  0.83920  1.0000
  O   O23       1.0  0.26590  0.96310  0.41080  1.0000
  O   O24       1.0  0.98410  0.28690  0.41080  1.0000
  O   O25       1.0  0.48410  0.46310  0.83920  1.0000
  O   O26       1.0  0.76590  0.78690  0.83920  1.0000
  O   O27       1.0  0.76590  0.46310  0.41080  1.0000
  O   O28       1.0  0.48410  0.78690  0.41080  1.0000
  O   O29       1.0  0.48410  0.96310  0.33920  1.0000
  O   O30       1.0  0.76590  0.28690  0.33920  1.0000
  O   O31       1.0  0.76590  0.96310  0.91080  1.0000
  O   O32       1.0  0.48410  0.28690  0.91080  1.0000
  O   O33       1.0  0.94270  0.62660  0.69000  1.0000
  O   O34       1.0  0.80730  0.12340  0.69000  1.0000
  O   O35       1.0  0.80730  0.62660  0.06000  1.0000
  O   O36       1.0  0.94270  0.12340  0.06000  1.0000
  O   O37       1.0  0.94270  0.12660  0.19000  1.0000
  O   O38       1.0  0.80730  0.62340  0.19000  1.0000
  O   O39       1.0  0.80730  0.12660  0.56000  1.0000
  O   O40       1.0  0.94270  0.62340  0.56000  1.0000
  O   O41       1.0  0.44270  0.62660  0.19000  1.0000
  O   O42       1.0  0.30730  0.12340  0.19000  1.0000
  O   O43       1.0  0.30730  0.62660  0.56000  1.0000
  O   O44       1.0  0.44270  0.12340  0.56000  1.0000
  O   O45       1.0  0.44270  0.12660  0.69000  1.0000
  O   O46       1.0  0.30730  0.62340  0.69000  1.0000
  O   O47       1.0  0.30730  0.12660  0.06000  1.0000
  O   O48       1.0  0.44270  0.62340  0.06000  1.0000
  O   O49       1.0  0.05730  0.37340  0.31000  1.0000
  O   O50       1.0  0.19270  0.87660  0.31000  1.0000
  O   O51       1.0  0.19270  0.37340  0.94000  1.0000
  O   O52       1.0  0.05730  0.87660  0.94000  1.0000
  O   O53       1.0  0.05730  0.87340  0.81000  1.0000
  O   O54       1.0  0.19270  0.37660  0.81000  1.0000
  O   O55       1.0  0.19270  0.87340  0.44000  1.0000
  O   O56       1.0  0.05730  0.37660  0.44000  1.0000
  O   O57       1.0  0.55730  0.37340  0.81000  1.0000
  O   O58       1.0  0.69270  0.87660  0.81000  1.0000
  O   O59       1.0  0.69270  0.37340  0.44000  1.0000
  O   O60       1.0  0.55730  0.87660  0.44000  1.0000
  O   O61       1.0  0.55730  0.87340  0.31000  1.0000
  O   O62       1.0  0.69270  0.37660  0.31000  1.0000
  O   O63       1.0  0.69270  0.87340  0.94000  1.0000
  O   O64       1.0  0.55730  0.37660  0.94000  1.0000
  C   C1        1.0  0.94120  0.56720  0.68770  1.0000
  C   C2        1.0  0.80880  0.18280  0.68770  1.0000
  C   C3        1.0  0.80880  0.56720  0.06230  1.0000
  C   C4        1.0  0.94120  0.18280  0.06230  1.0000
  C   C5        1.0  0.94120  0.06720  0.18770  1.0000
  C   C6        1.0  0.80880  0.68280  0.18770  1.0000
  C   C7        1.0  0.80880  0.06720  0.56230  1.0000
  C   C8        1.0  0.94120  0.68280  0.56230  1.0000
  C   C9        1.0  0.44120  0.56720  0.18770  1.0000
  C   C10       1.0  0.30880  0.18280  0.18770  1.0000
  C   C11       1.0  0.30880  0.56720  0.56230  1.0000
  C   C12       1.0  0.44120  0.18280  0.56230  1.0000
  C   C13       1.0  0.44120  0.06720  0.68770  1.0000
  C   C14       1.0  0.30880  0.68280  0.68770  1.0000
  C   C15       1.0  0.30880  0.06720  0.06230  1.0000
  C   C16       1.0  0.44120  0.68280  0.06230  1.0000
  C   C17       1.0  0.05880  0.43280  0.31230  1.0000
  C   C18       1.0  0.19120  0.81720  0.31230  1.0000
  C   C19       1.0  0.19120  0.43280  0.93770  1.0000
  C   C20       1.0  0.05880  0.81720  0.93770  1.0000
  C   C21       1.0  0.05880  0.93280  0.81230  1.0000
  C   C22       1.0  0.19120  0.31720  0.81230  1.0000
  C   C23       1.0  0.19120  0.93280  0.43770  1.0000
  C   C24       1.0  0.05880  0.31720  0.43770  1.0000
  C   C25       1.0  0.55880  0.43280  0.81230  1.0000
  C   C26       1.0  0.69120  0.81720  0.81230  1.0000
  C   C27       1.0  0.69120  0.43280  0.43770  1.0000
  C   C28       1.0  0.55880  0.81720  0.43770  1.0000
  C   C29       1.0  0.55880  0.93280  0.31230  1.0000
  C   C30       1.0  0.69120  0.31720  0.31230  1.0000
  C   C31       1.0  0.69120  0.93280  0.93770  1.0000
  C   C32       1.0  0.55880  0.31720  0.93770  1.0000
  C   C33       1.0  0.82990  0.46760  0.71660  1.0000
  C   C34       1.0  0.92010  0.28240  0.71660  1.0000
  C   C35       1.0  0.92010  0.46760  0.03340  1.0000
  C   C36       1.0  0.82990  0.28240  0.03340  1.0000
  C   C37       1.0  0.82990  0.96760  0.21660  1.0000
  C   C38       1.0  0.92010  0.78240  0.21660  1.0000
  C   C39       1.0  0.92010  0.96760  0.53340  1.0000
  C   C40       1.0  0.82990  0.78240  0.53340  1.0000
  C   C41       1.0  0.32990  0.46760  0.21660  1.0000
  C   C42       1.0  0.42010  0.28240  0.21660  1.0000
  C   C43       1.0  0.42010  0.46760  0.53340  1.0000
  C   C44       1.0  0.32990  0.28240  0.53340  1.0000
  C   C45       1.0  0.32990  0.96760  0.71660  1.0000
  C   C46       1.0  0.42010  0.78240  0.71660  1.0000
  C   C47       1.0  0.42010  0.96760  0.03340  1.0000
  C   C48       1.0  0.32990  0.78240  0.03340  1.0000
  C   C49       1.0  0.17010  0.53240  0.28340  1.0000
  C   C50       1.0  0.07990  0.71760  0.28340  1.0000
  C   C51       1.0  0.07990  0.53240  0.96660  1.0000
  C   C52       1.0  0.17010  0.71760  0.96660  1.0000
  C   C53       1.0  0.17010  0.03240  0.78340  1.0000
  C   C54       1.0  0.07990  0.21760  0.78340  1.0000
  C   C55       1.0  0.07990  0.03240  0.46660  1.0000
  C   C56       1.0  0.17010  0.21760  0.46660  1.0000
  C   C57       1.0  0.67010  0.53240  0.78340  1.0000
  C   C58       1.0  0.57990  0.71760  0.78340  1.0000
  C   C59       1.0  0.57990  0.53240  0.46660  1.0000
  C   C60       1.0  0.67010  0.71760  0.46660  1.0000
  C   C61       1.0  0.67010  0.03240  0.28340  1.0000
  C   C62       1.0  0.57990  0.21760  0.28340  1.0000
  C   C63       1.0  0.57990  0.03240  0.96660  1.0000
  C   C64       1.0  0.67010  0.21760  0.96660  1.0000
  H   H1        1.0  0.88010  0.44520  0.69390  1.0000
  H   H2        1.0  0.86990  0.30480  0.69390  1.0000
  H   H3        1.0  0.86990  0.44520  0.05610  1.0000
  H   H4        1.0  0.88010  0.30480  0.05610  1.0000
  H   H5        1.0  0.88010  0.94520  0.19390  1.0000
  H   H6        1.0  0.86990  0.80480  0.19390  1.0000
  H   H7        1.0  0.86990  0.94520  0.55610  1.0000
  H   H8        1.0  0.88010  0.80480  0.55610  1.0000
  H   H9        1.0  0.38010  0.44520  0.19390  1.0000
  H   H10       1.0  0.36990  0.30480  0.19390  1.0000
  H   H11       1.0  0.36990  0.44520  0.55610  1.0000
  H   H12       1.0  0.38010  0.30480  0.55610  1.0000
  H   H13       1.0  0.38010  0.94520  0.69390  1.0000
  H   H14       1.0  0.36990  0.80480  0.69390  1.0000
  H   H15       1.0  0.36990  0.94520  0.05610  1.0000
  H   H16       1.0  0.38010  0.80480  0.05610  1.0000
  H   H17       1.0  0.11990  0.55480  0.30610  1.0000
  H   H18       1.0  0.13010  0.69520  0.30610  1.0000
  H   H19       1.0  0.13010  0.55480  0.94390  1.0000
  H   H20       1.0  0.11990  0.69520  0.94390  1.0000
  H   H21       1.0  0.11990  0.05480  0.80610  1.0000
  H   H22       1.0  0.13010  0.19520  0.80610  1.0000
  H   H23       1.0  0.13010  0.05480  0.44390  1.0000
  H   H24       1.0  0.11990  0.19520  0.44390  1.0000
  H   H25       1.0  0.61990  0.55480  0.80610  1.0000
  H   H26       1.0  0.63010  0.69520  0.80610  1.0000
  H   H27       1.0  0.63010  0.55480  0.44390  1.0000
  H   H28       1.0  0.61990  0.69520  0.44390  1.0000
  H   H29       1.0  0.61990  0.05480  0.30610  1.0000
  H   H30       1.0  0.63010  0.19520  0.30610  1.0000
  H   H31       1.0  0.63010  0.05480  0.94390  1.0000
  H   H32       1.0  0.61990  0.19520  0.94390  1.0000
  C   C65       1.0  0.84040  0.53290  0.72060  1.0000
  C   C66       1.0  0.90960  0.21710  0.72060  1.0000
  C   C67       1.0  0.90960  0.53290  0.02940  1.0000
  C   C68       1.0  0.84040  0.21710  0.02940  1.0000
  C   C69       1.0  0.84040  0.03290  0.22060  1.0000
  C   C70       1.0  0.90960  0.71710  0.22060  1.0000
  C   C71       1.0  0.90960  0.03290  0.52940  1.0000
  C   C72       1.0  0.84040  0.71710  0.52940  1.0000
  C   C73       1.0  0.34040  0.53290  0.22060  1.0000
  C   C74       1.0  0.40960  0.21710  0.22060  1.0000
  C   C75       1.0  0.40960  0.53290  0.52940  1.0000
  C   C76       1.0  0.34040  0.21710  0.52940  1.0000
  C   C77       1.0  0.34040  0.03290  0.72060  1.0000
  C   C78       1.0  0.40960  0.71710  0.72060  1.0000
  C   C79       1.0  0.40960  0.03290  0.02940  1.0000
  C   C80       1.0  0.34040  0.71710  0.02940  1.0000
  C   C81       1.0  0.15960  0.46710  0.27940  1.0000
  C   C82       1.0  0.09040  0.78290  0.27940  1.0000
  C   C83       1.0  0.09040  0.46710  0.97060  1.0000
  C   C84       1.0  0.15960  0.78290  0.97060  1.0000
  C   C85       1.0  0.15960  0.96710  0.77940  1.0000
  C   C86       1.0  0.09040  0.28290  0.77940  1.0000
  C   C87       1.0  0.09040  0.96710  0.47060  1.0000
  C   C88       1.0  0.15960  0.28290  0.47060  1.0000
  C   C89       1.0  0.65960  0.46710  0.77940  1.0000
  C   C90       1.0  0.59040  0.78290  0.77940  1.0000
  C   C91       1.0  0.59040  0.46710  0.47060  1.0000
  C   C92       1.0  0.65960  0.78290  0.47060  1.0000
  C   C93       1.0  0.65960  0.96710  0.27940  1.0000
  C   C94       1.0  0.59040  0.28290  0.27940  1.0000
  C   C95       1.0  0.59040  0.96710  0.97060  1.0000
  C   C96       1.0  0.65960  0.28290  0.97060  1.0000
  C   C97       1.0  0.76030  0.56300  0.75160  1.0000
  C   C98       1.0  0.98970  0.18700  0.75160  1.0000
  C   C99       1.0  0.98970  0.56300  0.99840  1.0000
  C   C100      1.0  0.76030  0.18700  0.99840  1.0000
  C   C101      1.0  0.76030  0.06300  0.25160  1.0000
  C   C102      1.0  0.98970  0.68700  0.25160  1.0000
  C   C103      1.0  0.98970  0.06300  0.49840  1.0000
  C   C104      1.0  0.76030  0.68700  0.49840  1.0000
  C   C105      1.0  0.26030  0.56300  0.25160  1.0000
  C   C106      1.0  0.48970  0.18700  0.25160  1.0000
  C   C107      1.0  0.48970  0.56300  0.49840  1.0000
  C   C108      1.0  0.26030  0.18700  0.49840  1.0000
  C   C109      1.0  0.26030  0.06300  0.75160  1.0000
  C   C110      1.0  0.48970  0.68700  0.75160  1.0000
  C   C111      1.0  0.48970  0.06300  0.99840  1.0000
  C   C112      1.0  0.26030  0.68700  0.99840  1.0000
  C   C113      1.0  0.23970  0.43700  0.24840  1.0000
  C   C114      1.0  0.01030  0.81300  0.24840  1.0000
  C   C115      1.0  0.01030  0.43700  0.00160  1.0000
  C   C116      1.0  0.23970  0.81300  0.00160  1.0000
  C   C117      1.0  0.23970  0.93700  0.74840  1.0000
  C   C118      1.0  0.01030  0.31300  0.74840  1.0000
  C   C119      1.0  0.01030  0.93700  0.50160  1.0000
  C   C120      1.0  0.23970  0.31300  0.50160  1.0000
  C   C121      1.0  0.73970  0.43700  0.74840  1.0000
  C   C122      1.0  0.51030  0.81300  0.74840  1.0000
  C   C123      1.0  0.51030  0.43700  0.50160  1.0000
  C   C124      1.0  0.73970  0.81300  0.50160  1.0000
  C   C125      1.0  0.73970  0.93700  0.24840  1.0000
  C   C126      1.0  0.51030  0.31300  0.24840  1.0000
  C   C127      1.0  0.51030  0.93700  0.00160  1.0000
  C   C128      1.0  0.73970  0.31300  0.00160  1.0000
  H   H33       1.0  0.76400  0.60690  0.75230  1.0000
  H   H34       1.0  0.98600  0.14310  0.75230  1.0000
  H   H35       1.0  0.98600  0.60690  0.99770  1.0000
  H   H36       1.0  0.76400  0.14310  0.99770  1.0000
  H   H37       1.0  0.76400  0.10690  0.25230  1.0000
  H   H38       1.0  0.98600  0.64310  0.25230  1.0000
  H   H39       1.0  0.98600  0.10690  0.49770  1.0000
  H   H40       1.0  0.76400  0.64310  0.49770  1.0000
  H   H41       1.0  0.26400  0.60690  0.25230  1.0000
  H   H42       1.0  0.48600  0.14310  0.25230  1.0000
  H   H43       1.0  0.48600  0.60690  0.49770  1.0000
  H   H44       1.0  0.26400  0.14310  0.49770  1.0000
  H   H45       1.0  0.26400  0.10690  0.75230  1.0000
  H   H46       1.0  0.48600  0.64310  0.75230  1.0000
  H   H47       1.0  0.48600  0.10690  0.99770  1.0000
  H   H48       1.0  0.26400  0.64310  0.99770  1.0000
  H   H49       1.0  0.23600  0.39310  0.24770  1.0000
  H   H50       1.0  0.01400  0.85690  0.24770  1.0000
  H   H51       1.0  0.01400  0.39310  0.00230  1.0000
  H   H52       1.0  0.23600  0.85690  0.00230  1.0000
  H   H53       1.0  0.23600  0.89310  0.74770  1.0000
  H   H54       1.0  0.01400  0.35690  0.74770  1.0000
  H   H55       1.0  0.01400  0.89310  0.50230  1.0000
  H   H56       1.0  0.23600  0.35690  0.50230  1.0000
  H   H57       1.0  0.73600  0.39310  0.74770  1.0000
  H   H58       1.0  0.51400  0.85690  0.74770  1.0000
  H   H59       1.0  0.51400  0.39310  0.50230  1.0000
  H   H60       1.0  0.73600  0.85690  0.50230  1.0000
  H   H61       1.0  0.73600  0.89310  0.24770  1.0000
  H   H62       1.0  0.51400  0.35690  0.24770  1.0000
  H   H63       1.0  0.51400  0.89310  0.00230  1.0000
  H   H64       1.0  0.73600  0.35690  0.00230  1.0000
