data_image0
_chemical_formula_structural       Cd4S4O28C4H2C4H2C4H2C8H2C4H2C4H2C4
_chemical_formula_sum              "Cd4 S4 O28 C32 H12"
_cell_length_a       10.232
_cell_length_b       11.14
_cell_length_c       17.971
_cell_angle_alpha    103.905
_cell_angle_beta     98.362
_cell_angle_gamma    109.981

_space_group_name_H-M_alt    "P 1"
_space_group_IT_number       1

loop_
  _space_group_symop_operation_xyz
  'x, y, z'

loop_
  _atom_site_type_symbol
  _atom_site_label
  _atom_site_symmetry_multiplicity
  _atom_site_fract_x
  _atom_site_fract_y
  _atom_site_fract_z
  _atom_site_occupancy
  Cd  Cd1       1.0  0.94402  0.83133  0.50998  1.0000
  Cd  Cd2       1.0  0.05598  0.16867  0.49002  1.0000
  Cd  Cd3       1.0  0.63907  0.87131  0.38881  1.0000
  Cd  Cd4       1.0  0.36093  0.12869  0.61119  1.0000
  S   S1        1.0  0.31780  0.43350  0.65440  1.0000
  S   S2        1.0  0.68220  0.56650  0.34560  1.0000
  S   S3        1.0  0.00640  0.76810  0.05860  1.0000
  S   S4        1.0  0.99360  0.23190  0.94140  1.0000
  O   O1        1.0  0.70820  0.84950  0.50820  1.0000
  O   O2        1.0  0.29180  0.15050  0.49180  1.0000
  O   O3        1.0  0.77670  0.72920  0.57320  1.0000
  O   O4        1.0  0.22330  0.27080  0.42680  1.0000
  O   O5        1.0  0.23800  0.90600  0.54050  1.0000
  O   O6        1.0  0.76200  0.09400  0.45950  1.0000
  O   O7        1.0  0.07240  0.72620  0.55440  1.0000
  O   O8        1.0  0.92760  0.27380  0.44560  1.0000
  O   O9        1.0  0.17440  0.34430  0.60910  1.0000
  O   O10       1.0  0.82560  0.65570  0.39090  1.0000
  O   O11       1.0  0.41750  0.36570  0.64420  1.0000
  O   O12       1.0  0.58250  0.63430  0.35580  1.0000
  O   O13       1.0  0.32540  0.49620  0.73810  1.0000
  O   O14       1.0  0.67460  0.50380  0.26190  1.0000
  O   O15       1.0  0.48250  0.87720  0.28300  1.0000
  O   O16       1.0  0.51750  0.12280  0.71700  1.0000
  O   O17       1.0  0.41050  0.85660  0.38530  1.0000
  O   O18       1.0  0.58950  0.14340  0.61470  1.0000
  O   O19       1.0  0.78880  0.87060  0.30960  1.0000
  O   O20       1.0  0.21120  0.12940  0.69040  1.0000
  O   O21       1.0  0.96970  0.94860  0.41910  1.0000
  O   O22       1.0  0.03030  0.05140  0.58090  1.0000
  O   O23       1.0  0.87830  0.78900  0.03520  1.0000
  O   O24       1.0  0.12170  0.21100  0.96480  1.0000
  O   O25       1.0  0.11200  0.86700  0.04050  1.0000
  O   O26       1.0  0.88800  0.13300  0.95950  1.0000
  O   O27       1.0  0.00300  0.64100  0.03330  1.0000
  O   O28       1.0  0.99700  0.35900  0.96670  1.0000
  C   C1        1.0  0.54070  0.72660  0.56920  1.0000
  C   C2        1.0  0.45930  0.27340  0.43080  1.0000
  C   C3        1.0  0.44300  0.78560  0.55500  1.0000
  C   C4        1.0  0.55700  0.21440  0.44500  1.0000
  H   H1        1.0  0.46700  0.85570  0.53330  1.0000
  H   H2        1.0  0.53300  0.14430  0.46670  1.0000
  C   C5        1.0  0.31500  0.74240  0.57220  1.0000
  C   C6        1.0  0.68500  0.25760  0.42780  1.0000
  C   C7        1.0  0.27160  0.62970  0.60080  1.0000
  C   C8        1.0  0.72840  0.37030  0.39920  1.0000
  H   H3        1.0  0.18220  0.60000  0.61190  1.0000
  H   H4        1.0  0.81780  0.40000  0.38810  1.0000
  C   C9        1.0  0.36540  0.56280  0.61240  1.0000
  C   C10       1.0  0.63460  0.43720  0.38760  1.0000
  C   C11       1.0  0.50240  0.61780  0.59840  1.0000
  C   C12       1.0  0.49760  0.38220  0.40160  1.0000
  H   H5        1.0  0.56880  0.58050  0.60900  1.0000
  H   H6        1.0  0.43120  0.41950  0.39100  1.0000
  C   C13       1.0  0.68530  0.76660  0.54740  1.0000
  C   C14       1.0  0.31470  0.23340  0.45260  1.0000
  C   C15       1.0  0.19640  0.79230  0.55590  1.0000
  C   C16       1.0  0.80360  0.20770  0.44410  1.0000
  C   C17       1.0  0.24240  0.85960  0.27820  1.0000
  C   C18       1.0  0.75760  0.14040  0.72180  1.0000
  C   C19       1.0  0.14890  0.88120  0.32730  1.0000
  C   C20       1.0  0.85110  0.11880  0.67270  1.0000
  H   H7        1.0  0.17840  0.90120  0.38180  1.0000
  H   H8        1.0  0.82160  0.09880  0.61820  1.0000
  C   C21       1.0  0.01360  0.87190  0.29270  1.0000
  C   C22       1.0  0.98640  0.12810  0.70730  1.0000
  C   C23       1.0  0.96990  0.83660  0.21070  1.0000
  C   C24       1.0  0.03010  0.16340  0.78930  1.0000
  H   H9        1.0  0.87740  0.82510  0.18720  1.0000
  H   H10       1.0  0.12260  0.17490  0.81280  1.0000
  C   C25       1.0  0.06140  0.81820  0.16320  1.0000
  C   C26       1.0  0.93860  0.18180  0.83680  1.0000
  C   C27       1.0  0.19850  0.82400  0.20100  1.0000
  C   C28       1.0  0.80150  0.17600  0.79900  1.0000
  H   H11       1.0  0.25720  0.80190  0.16990  1.0000
  H   H12       1.0  0.74280  0.19810  0.83010  1.0000
  C   C29       1.0  0.38820  0.86490  0.31850  1.0000
  C   C30       1.0  0.61180  0.13510  0.68150  1.0000
  C   C31       1.0  0.91850  0.89880  0.34430  1.0000
  C   C32       1.0  0.08150  0.10120  0.65570  1.0000
