data_image0
_chemical_formula_structural       Ag4C24H4C4H4C4H4C4H4C4H4C8H4C4H4C4H4C4H4C8H4C4H4N8O24S8
_chemical_formula_sum              "Ag4 C72 H44 N8 O24 S8"
_cell_length_a       10.322
_cell_length_b       17.3434
_cell_length_c       16.3035
_cell_angle_alpha    90
_cell_angle_beta     105.884
_cell_angle_gamma    90

_space_group_name_H-M_alt    "P 1"
_space_group_IT_number       1

loop_
  _space_group_symop_operation_xyz
  'x, y, z'

loop_
  _atom_site_type_symbol
  _atom_site_label
  _atom_site_symmetry_multiplicity
  _atom_site_fract_x
  _atom_site_fract_y
  _atom_site_fract_z
  _atom_site_occupancy
  Ag  Ag1       1.0  0.36981  0.31023  0.19966  1.0000
  Ag  Ag2       1.0  0.63019  0.81023  0.30034  1.0000
  Ag  Ag3       1.0  0.63019  0.68977  0.80034  1.0000
  Ag  Ag4       1.0  0.36981  0.18977  0.69966  1.0000
  C   C1        1.0  0.13500  0.49847  0.35304  1.0000
  C   C2        1.0  0.86500  0.99847  0.14696  1.0000
  C   C3        1.0  0.86500  0.50153  0.64696  1.0000
  C   C4        1.0  0.13500  0.00153  0.85304  1.0000
  C   C5        1.0  0.13040  0.49229  0.43840  1.0000
  C   C6        1.0  0.86960  0.99229  0.06160  1.0000
  C   C7        1.0  0.86960  0.50771  0.56160  1.0000
  C   C8        1.0  0.13040  0.00771  0.93840  1.0000
  C   C9        1.0  0.00420  0.50341  0.45690  1.0000
  C   C10       1.0  0.99580  0.00341  0.04310  1.0000
  C   C11       1.0  0.99580  0.49659  0.54310  1.0000
  C   C12       1.0  0.00420  0.99659  0.95690  1.0000
  C   C13       1.0  0.88580  0.52193  0.39025  1.0000
  C   C14       1.0  0.11420  0.02193  0.10975  1.0000
  C   C15       1.0  0.11420  0.47807  0.60975  1.0000
  C   C16       1.0  0.88580  0.97807  0.89025  1.0000
  C   C17       1.0  0.89810  0.53020  0.30663  1.0000
  C   C18       1.0  0.10190  0.03020  0.19337  1.0000
  C   C19       1.0  0.10190  0.46980  0.69337  1.0000
  C   C20       1.0  0.89810  0.96980  0.80663  1.0000
  C   C21       1.0  0.01960  0.51727  0.28918  1.0000
  C   C22       1.0  0.98040  0.01727  0.21082  1.0000
  C   C23       1.0  0.98040  0.48273  0.71082  1.0000
  C   C24       1.0  0.01960  0.98273  0.78918  1.0000
  H   H1        1.0  0.02464  0.52133  0.23202  1.0000
  H   H2        1.0  0.97536  0.02133  0.26798  1.0000
  H   H3        1.0  0.97536  0.47867  0.76798  1.0000
  H   H4        1.0  0.02464  0.97867  0.73202  1.0000
  C   C25       1.0  0.76070  0.53064  0.41140  1.0000
  C   C26       1.0  0.23930  0.03064  0.08860  1.0000
  C   C27       1.0  0.23930  0.46936  0.58860  1.0000
  C   C28       1.0  0.76070  0.96936  0.91140  1.0000
  H   H5        1.0  0.68130  0.54151  0.36727  1.0000
  H   H6        1.0  0.31870  0.04151  0.13273  1.0000
  H   H7        1.0  0.31870  0.45849  0.63273  1.0000
  H   H8        1.0  0.68130  0.95849  0.86727  1.0000
  C   C29       1.0  0.24730  0.47616  0.50788  1.0000
  C   C30       1.0  0.75270  0.97616  0.99212  1.0000
  C   C31       1.0  0.75270  0.52384  0.49212  1.0000
  C   C32       1.0  0.24730  0.02384  0.00788  1.0000
  H   H9        1.0  0.33229  0.47015  0.49653  1.0000
  H   H10       1.0  0.66771  0.97015  0.00347  1.0000
  H   H11       1.0  0.66771  0.52985  0.50347  1.0000
  H   H12       1.0  0.33229  0.02985  0.99653  1.0000
  C   C33       1.0  0.12620  0.27456  0.58785  1.0000
  C   C34       1.0  0.87380  0.77456  0.91215  1.0000
  C   C35       1.0  0.87380  0.72544  0.41215  1.0000
  C   C36       1.0  0.12620  0.22544  0.08785  1.0000
  H   H13       1.0  0.17091  0.31523  0.62355  1.0000
  H   H14       1.0  0.82909  0.81523  0.87645  1.0000
  H   H15       1.0  0.82909  0.68477  0.37645  1.0000
  H   H16       1.0  0.17091  0.18477  0.12355  1.0000
  C   C37       1.0  0.00650  0.29050  0.52793  1.0000
  C   C38       1.0  0.99350  0.79050  0.97207  1.0000
  C   C39       1.0  0.99350  0.70950  0.47207  1.0000
  C   C40       1.0  0.00650  0.20950  0.02793  1.0000
  H   H17       1.0  0.97113  0.34139  0.52263  1.0000
  H   H18       1.0  0.02887  0.84139  0.97737  1.0000
  H   H19       1.0  0.02887  0.65861  0.47737  1.0000
  H   H20       1.0  0.97113  0.15861  0.02263  1.0000
  C   C41       1.0  0.93710  0.23211  0.47502  1.0000
  C   C42       1.0  0.06290  0.73211  0.02498  1.0000
  C   C43       1.0  0.06290  0.76789  0.52498  1.0000
  C   C44       1.0  0.93710  0.26789  0.97502  1.0000
  C   C45       1.0  0.99610  0.15940  0.48612  1.0000
  C   C46       1.0  0.00390  0.65940  0.01388  1.0000
  C   C47       1.0  0.00390  0.84060  0.51388  1.0000
  C   C48       1.0  0.99610  0.34060  0.98612  1.0000
  H   H21       1.0  0.95337  0.11754  0.45162  1.0000
  H   H22       1.0  0.04663  0.61754  0.04838  1.0000
  H   H23       1.0  0.04663  0.88246  0.54838  1.0000
  H   H24       1.0  0.95337  0.38246  0.95162  1.0000
  C   C49       1.0  0.11690  0.14804  0.54727  1.0000
  C   C50       1.0  0.88310  0.64804  0.95273  1.0000
  C   C51       1.0  0.88310  0.85196  0.45273  1.0000
  C   C52       1.0  0.11690  0.35196  0.04727  1.0000
  H   H25       1.0  0.15523  0.09786  0.55355  1.0000
  H   H26       1.0  0.84477  0.59786  0.94645  1.0000
  H   H27       1.0  0.84477  0.90214  0.44645  1.0000
  H   H28       1.0  0.15523  0.40214  0.05355  1.0000
  C   C53       1.0  0.65660  0.33532  0.31664  1.0000
  C   C54       1.0  0.34340  0.83532  0.18336  1.0000
  C   C55       1.0  0.34340  0.66468  0.68336  1.0000
  C   C56       1.0  0.65660  0.16468  0.81664  1.0000
  H   H29       1.0  0.63918  0.38564  0.29319  1.0000
  H   H30       1.0  0.36082  0.88564  0.20681  1.0000
  H   H31       1.0  0.36082  0.61436  0.70681  1.0000
  H   H32       1.0  0.63918  0.11436  0.79319  1.0000
  C   C57       1.0  0.77860  0.32143  0.37503  1.0000
  C   C58       1.0  0.22140  0.82143  0.12497  1.0000
  C   C59       1.0  0.22140  0.67857  0.62497  1.0000
  C   C60       1.0  0.77860  0.17857  0.87503  1.0000
  H   H33       1.0  0.84328  0.36159  0.39062  1.0000
  H   H34       1.0  0.15672  0.86159  0.10938  1.0000
  H   H35       1.0  0.15672  0.63841  0.60938  1.0000
  H   H36       1.0  0.84328  0.13841  0.89062  1.0000
  C   C61       1.0  0.80730  0.24847  0.41130  1.0000
  C   C62       1.0  0.19270  0.74847  0.08870  1.0000
  C   C63       1.0  0.19270  0.75153  0.58870  1.0000
  C   C64       1.0  0.80730  0.25153  0.91130  1.0000
  C   C65       1.0  0.70840  0.19212  0.38472  1.0000
  C   C66       1.0  0.29160  0.69212  0.11528  1.0000
  C   C67       1.0  0.29160  0.80788  0.61528  1.0000
  C   C68       1.0  0.70840  0.30788  0.88472  1.0000
  H   H37       1.0  0.72331  0.14134  0.40719  1.0000
  H   H38       1.0  0.27669  0.64134  0.09281  1.0000
  H   H39       1.0  0.27669  0.85866  0.59281  1.0000
  H   H40       1.0  0.72331  0.35866  0.90719  1.0000
  C   C69       1.0  0.58840  0.21052  0.32542  1.0000
  C   C70       1.0  0.41160  0.71052  0.17458  1.0000
  C   C71       1.0  0.41160  0.78948  0.67458  1.0000
  C   C72       1.0  0.58840  0.28948  0.82542  1.0000
  H   H41       1.0  0.52234  0.17130  0.30806  1.0000
  H   H42       1.0  0.47766  0.67130  0.19194  1.0000
  H   H43       1.0  0.47766  0.82870  0.69194  1.0000
  H   H44       1.0  0.52234  0.32870  0.80806  1.0000
  N   N1        1.0  0.56074  0.28118  0.29115  1.0000
  N   N2        1.0  0.43926  0.78118  0.20885  1.0000
  N   N3        1.0  0.43926  0.71882  0.70885  1.0000
  N   N4        1.0  0.56074  0.21882  0.79115  1.0000
  N   N5        1.0  0.18249  0.20432  0.59814  1.0000
  N   N6        1.0  0.81751  0.70432  0.90186  1.0000
  N   N7        1.0  0.81751  0.79568  0.40186  1.0000
  N   N8        1.0  0.18249  0.29568  0.09814  1.0000
  O   O1        1.0  0.70564  0.62845  0.24638  1.0000
  O   O2        1.0  0.29436  0.12845  0.25362  1.0000
  O   O3        1.0  0.29436  0.37155  0.75362  1.0000
  O   O4        1.0  0.70564  0.87155  0.74638  1.0000
  O   O5        1.0  0.81722  0.57276  0.14866  1.0000
  O   O6        1.0  0.18278  0.07276  0.35134  1.0000
  O   O7        1.0  0.18278  0.42724  0.85134  1.0000
  O   O8        1.0  0.81722  0.92724  0.64866  1.0000
  O   O9        1.0  0.66699  0.49415  0.20448  1.0000
  O   O10       1.0  0.33301  0.99415  0.29552  1.0000
  O   O11       1.0  0.33301  0.50585  0.79552  1.0000
  O   O12       1.0  0.66699  0.00585  0.70448  1.0000
  O   O13       1.0  0.39516  0.51555  0.37924  1.0000
  O   O14       1.0  0.60484  0.01555  0.12076  1.0000
  O   O15       1.0  0.60484  0.48445  0.62076  1.0000
  O   O16       1.0  0.39516  0.98445  0.87924  1.0000
  O   O17       1.0  0.29210  0.39722  0.31570  1.0000
  O   O18       1.0  0.70790  0.89722  0.18430  1.0000
  O   O19       1.0  0.70790  0.60278  0.68430  1.0000
  O   O20       1.0  0.29210  0.10278  0.81570  1.0000
  O   O21       1.0  0.25270  0.51579  0.23470  1.0000
  O   O22       1.0  0.74730  0.01579  0.26530  1.0000
  O   O23       1.0  0.74730  0.48421  0.76530  1.0000
  O   O24       1.0  0.25270  0.98421  0.73470  1.0000
  S   S1        1.0  0.75957  0.55887  0.21951  1.0000
  S   S2        1.0  0.24043  0.05887  0.28049  1.0000
  S   S3        1.0  0.24043  0.44113  0.78049  1.0000
  S   S4        1.0  0.75957  0.94113  0.71951  1.0000
  S   S5        1.0  0.28284  0.48054  0.31878  1.0000
  S   S6        1.0  0.71716  0.98054  0.18122  1.0000
  S   S7        1.0  0.71716  0.51946  0.68122  1.0000
  S   S8        1.0  0.28284  0.01946  0.81878  1.0000
