data_image0
_chemical_formula_structural       Tb8O72N16C8H16C16H16C16H16C8H16C8H16C8H16C16H16C8H16
_chemical_formula_sum              "Tb8 O72 N16 C88 H128"
_cell_length_a       18.144
_cell_length_b       9.2463
_cell_length_c       25.15
_cell_angle_alpha    90
_cell_angle_beta     100.588
_cell_angle_gamma    90

_space_group_name_H-M_alt    "P 1"
_space_group_IT_number       1

loop_
  _space_group_symop_operation_xyz
  'x, y, z'

loop_
  _atom_site_type_symbol
  _atom_site_label
  _atom_site_symmetry_multiplicity
  _atom_site_fract_x
  _atom_site_fract_y
  _atom_site_fract_z
  _atom_site_occupancy
  Tb  Tb1       1.0  0.73753  0.69755  0.31807  1.0000
  Tb  Tb2       1.0  0.26247  0.69755  0.18193  1.0000
  Tb  Tb3       1.0  0.23753  0.19755  0.31807  1.0000
  Tb  Tb4       1.0  0.76247  0.19755  0.18193  1.0000
  Tb  Tb5       1.0  0.26247  0.30245  0.68193  1.0000
  Tb  Tb6       1.0  0.73753  0.30245  0.81807  1.0000
  Tb  Tb7       1.0  0.76247  0.80245  0.68193  1.0000
  Tb  Tb8       1.0  0.23753  0.80245  0.81807  1.0000
  O   O1        1.0  0.67081  0.68389  0.38874  1.0000
  O   O2        1.0  0.32919  0.68389  0.11126  1.0000
  O   O3        1.0  0.17081  0.18389  0.38874  1.0000
  O   O4        1.0  0.82919  0.18389  0.11126  1.0000
  O   O5        1.0  0.32919  0.31611  0.61126  1.0000
  O   O6        1.0  0.67081  0.31611  0.88874  1.0000
  O   O7        1.0  0.82919  0.81611  0.61126  1.0000
  O   O8        1.0  0.17081  0.81611  0.88874  1.0000
  O   O9        1.0  0.61763  0.54685  0.44399  1.0000
  O   O10       1.0  0.38237  0.54685  0.05601  1.0000
  O   O11       1.0  0.11763  0.04685  0.44399  1.0000
  O   O12       1.0  0.88237  0.04685  0.05601  1.0000
  O   O13       1.0  0.38237  0.45315  0.55601  1.0000
  O   O14       1.0  0.61763  0.45315  0.94399  1.0000
  O   O15       1.0  0.88237  0.95315  0.55601  1.0000
  O   O16       1.0  0.11763  0.95315  0.94399  1.0000
  O   O17       1.0  0.72946  0.46535  0.28082  1.0000
  O   O18       1.0  0.27054  0.46535  0.21918  1.0000
  O   O19       1.0  0.22946  0.96535  0.28082  1.0000
  O   O20       1.0  0.77054  0.96535  0.21918  1.0000
  O   O21       1.0  0.27054  0.53465  0.71918  1.0000
  O   O22       1.0  0.72946  0.53465  0.78082  1.0000
  O   O23       1.0  0.77054  0.03465  0.71918  1.0000
  O   O24       1.0  0.22946  0.03465  0.78082  1.0000
  O   O25       1.0  0.77511  0.24327  0.27513  1.0000
  O   O26       1.0  0.22489  0.24327  0.22487  1.0000
  O   O27       1.0  0.27511  0.74327  0.27513  1.0000
  O   O28       1.0  0.72489  0.74327  0.22487  1.0000
  O   O29       1.0  0.22489  0.75673  0.72487  1.0000
  O   O30       1.0  0.77511  0.75673  0.77513  1.0000
  O   O31       1.0  0.72489  0.25673  0.72487  1.0000
  O   O32       1.0  0.27511  0.25673  0.77513  1.0000
  O   O33       1.0  0.69684  0.93648  0.32501  1.0000
  O   O34       1.0  0.30316  0.93648  0.17499  1.0000
  O   O35       1.0  0.19684  0.43648  0.32501  1.0000
  O   O36       1.0  0.80316  0.43648  0.17499  1.0000
  O   O37       1.0  0.30316  0.06352  0.67499  1.0000
  O   O38       1.0  0.69684  0.06352  0.82501  1.0000
  O   O39       1.0  0.80316  0.56352  0.67499  1.0000
  O   O40       1.0  0.19684  0.56352  0.82501  1.0000
  O   O41       1.0  0.66978  0.10854  0.38063  1.0000
  O   O42       1.0  0.33022  0.10854  0.11937  1.0000
  O   O43       1.0  0.16978  0.60854  0.38063  1.0000
  O   O44       1.0  0.83022  0.60854  0.11937  1.0000
  O   O45       1.0  0.33022  0.89146  0.61937  1.0000
  O   O46       1.0  0.66978  0.89146  0.88063  1.0000
  O   O47       1.0  0.83022  0.39146  0.61937  1.0000
  O   O48       1.0  0.16978  0.39146  0.88063  1.0000
  O   O49       1.0  0.86578  0.71397  0.30874  1.0000
  O   O50       1.0  0.13422  0.71397  0.19126  1.0000
  O   O51       1.0  0.36578  0.21397  0.30874  1.0000
  O   O52       1.0  0.63422  0.21397  0.19126  1.0000
  O   O53       1.0  0.13422  0.28603  0.69126  1.0000
  O   O54       1.0  0.86578  0.28603  0.80874  1.0000
  O   O55       1.0  0.63422  0.78603  0.69126  1.0000
  O   O56       1.0  0.36578  0.78603  0.80874  1.0000
  O   O57       1.0  0.96407  0.86242  0.31220  1.0000
  O   O58       1.0  0.03593  0.86242  0.18780  1.0000
  O   O59       1.0  0.46407  0.36242  0.31220  1.0000
  O   O60       1.0  0.53593  0.36242  0.18780  1.0000
  O   O61       1.0  0.03593  0.13758  0.68780  1.0000
  O   O62       1.0  0.96407  0.13758  0.81220  1.0000
  O   O63       1.0  0.53593  0.63758  0.68780  1.0000
  O   O64       1.0  0.46407  0.63758  0.81220  1.0000
  O   O65       1.0  0.60880  0.68260  0.27870  1.0000
  O   O66       1.0  0.39120  0.68260  0.22130  1.0000
  O   O67       1.0  0.10880  0.18260  0.27870  1.0000
  O   O68       1.0  0.89120  0.18260  0.22130  1.0000
  O   O69       1.0  0.39120  0.31740  0.72130  1.0000
  O   O70       1.0  0.60880  0.31740  0.77870  1.0000
  O   O71       1.0  0.89120  0.81740  0.72130  1.0000
  O   O72       1.0  0.10880  0.81740  0.77870  1.0000
  N   N1        1.0  0.78553  0.48823  0.38806  1.0000
  N   N2        1.0  0.21447  0.48823  0.11194  1.0000
  N   N3        1.0  0.28553  0.98823  0.38806  1.0000
  N   N4        1.0  0.71447  0.98823  0.11194  1.0000
  N   N5        1.0  0.21447  0.51177  0.61194  1.0000
  N   N6        1.0  0.78553  0.51177  0.88806  1.0000
  N   N7        1.0  0.71447  0.01177  0.61194  1.0000
  N   N8        1.0  0.28553  0.01177  0.88806  1.0000
  N   N9        1.0  0.82091  0.85110  0.39195  1.0000
  N   N10       1.0  0.17909  0.85110  0.10805  1.0000
  N   N11       1.0  0.32091  0.35110  0.39195  1.0000
  N   N12       1.0  0.67909  0.35110  0.10805  1.0000
  N   N13       1.0  0.17909  0.14890  0.60805  1.0000
  N   N14       1.0  0.82091  0.14890  0.89195  1.0000
  N   N15       1.0  0.67909  0.64890  0.60805  1.0000
  N   N16       1.0  0.32091  0.64890  0.89195  1.0000
  C   C1        1.0  0.71443  0.44170  0.40431  1.0000
  C   C2        1.0  0.28557  0.44170  0.09569  1.0000
  C   C3        1.0  0.21443  0.94170  0.40431  1.0000
  C   C4        1.0  0.78557  0.94170  0.09569  1.0000
  C   C5        1.0  0.28557  0.55830  0.59569  1.0000
  C   C6        1.0  0.71443  0.55830  0.90431  1.0000
  C   C7        1.0  0.78557  0.05830  0.59569  1.0000
  C   C8        1.0  0.21443  0.05830  0.90431  1.0000
  H   H1        1.0  0.72650  0.38370  0.43790  1.0000
  H   H2        1.0  0.27350  0.38370  0.06210  1.0000
  H   H3        1.0  0.22650  0.88370  0.43790  1.0000
  H   H4        1.0  0.77350  0.88370  0.06210  1.0000
  H   H5        1.0  0.27350  0.61630  0.56210  1.0000
  H   H6        1.0  0.72650  0.61630  0.93790  1.0000
  H   H7        1.0  0.77350  0.11630  0.56210  1.0000
  H   H8        1.0  0.22650  0.11630  0.93790  1.0000
  H   H9        1.0  0.68650  0.37880  0.37570  1.0000
  H   H10       1.0  0.31350  0.37880  0.12430  1.0000
  H   H11       1.0  0.18650  0.87880  0.37570  1.0000
  H   H12       1.0  0.81350  0.87880  0.12430  1.0000
  H   H13       1.0  0.31350  0.62120  0.62430  1.0000
  H   H14       1.0  0.68650  0.62120  0.87570  1.0000
  H   H15       1.0  0.81350  0.12120  0.62430  1.0000
  H   H16       1.0  0.18650  0.12120  0.87570  1.0000
  C   C9        1.0  0.66446  0.56730  0.41389  1.0000
  C   C10       1.0  0.33554  0.56730  0.08611  1.0000
  C   C11       1.0  0.16446  0.06730  0.41389  1.0000
  C   C12       1.0  0.83554  0.06730  0.08611  1.0000
  C   C13       1.0  0.33554  0.43270  0.58611  1.0000
  C   C14       1.0  0.66446  0.43270  0.91389  1.0000
  C   C15       1.0  0.83554  0.93270  0.58611  1.0000
  C   C16       1.0  0.16446  0.93270  0.91389  1.0000
  C   C17       1.0  0.81248  0.36920  0.35733  1.0000
  C   C18       1.0  0.18752  0.36920  0.14267  1.0000
  C   C19       1.0  0.31248  0.86920  0.35733  1.0000
  C   C20       1.0  0.68752  0.86920  0.14267  1.0000
  C   C21       1.0  0.18752  0.63080  0.64267  1.0000
  C   C22       1.0  0.81248  0.63080  0.85733  1.0000
  C   C23       1.0  0.68752  0.13080  0.64267  1.0000
  C   C24       1.0  0.31248  0.13080  0.85733  1.0000
  H   H17       1.0  0.80840  0.27670  0.37640  1.0000
  H   H18       1.0  0.19160  0.27670  0.12360  1.0000
  H   H19       1.0  0.30840  0.77670  0.37640  1.0000
  H   H20       1.0  0.69160  0.77670  0.12360  1.0000
  H   H21       1.0  0.19160  0.72330  0.62360  1.0000
  H   H22       1.0  0.80840  0.72330  0.87640  1.0000
  H   H23       1.0  0.69160  0.22330  0.62360  1.0000
  H   H24       1.0  0.30840  0.22330  0.87640  1.0000
  H   H25       1.0  0.86610  0.38520  0.35600  1.0000
  H   H26       1.0  0.13390  0.38520  0.14400  1.0000
  H   H27       1.0  0.36610  0.88520  0.35600  1.0000
  H   H28       1.0  0.63390  0.88520  0.14400  1.0000
  H   H29       1.0  0.13390  0.61480  0.64400  1.0000
  H   H30       1.0  0.86610  0.61480  0.85600  1.0000
  H   H31       1.0  0.63390  0.11480  0.64400  1.0000
  H   H32       1.0  0.36610  0.11480  0.85600  1.0000
  C   C25       1.0  0.76836  0.35820  0.30012  1.0000
  C   C26       1.0  0.23164  0.35820  0.19988  1.0000
  C   C27       1.0  0.26836  0.85820  0.30012  1.0000
  C   C28       1.0  0.73164  0.85820  0.19988  1.0000
  C   C29       1.0  0.23164  0.64180  0.69988  1.0000
  C   C30       1.0  0.76836  0.64180  0.80012  1.0000
  C   C31       1.0  0.73164  0.14180  0.69988  1.0000
  C   C32       1.0  0.26836  0.14180  0.80012  1.0000
  C   C33       1.0  0.84364  0.51380  0.43740  1.0000
  C   C34       1.0  0.15636  0.51380  0.06260  1.0000
  C   C35       1.0  0.34364  0.01380  0.43740  1.0000
  C   C36       1.0  0.65636  0.01380  0.06260  1.0000
  C   C37       1.0  0.15636  0.48620  0.56260  1.0000
  C   C38       1.0  0.84364  0.48620  0.93740  1.0000
  C   C39       1.0  0.65636  0.98620  0.56260  1.0000
  C   C40       1.0  0.34364  0.98620  0.93740  1.0000
  H   H33       1.0  0.89370  0.50560  0.42730  1.0000
  H   H34       1.0  0.10630  0.50560  0.07270  1.0000
  H   H35       1.0  0.39370  0.00560  0.42730  1.0000
  H   H36       1.0  0.60630  0.00560  0.07270  1.0000
  H   H37       1.0  0.10630  0.49440  0.57270  1.0000
  H   H38       1.0  0.89370  0.49440  0.92730  1.0000
  H   H39       1.0  0.60630  0.99440  0.57270  1.0000
  H   H40       1.0  0.39370  0.99440  0.92730  1.0000
  H   H41       1.0  0.83970  0.43610  0.46380  1.0000
  H   H42       1.0  0.16030  0.43610  0.03620  1.0000
  H   H43       1.0  0.33970  0.93610  0.46380  1.0000
  H   H44       1.0  0.66030  0.93610  0.03620  1.0000
  H   H45       1.0  0.16030  0.56390  0.53620  1.0000
  H   H46       1.0  0.83970  0.56390  0.96380  1.0000
  H   H47       1.0  0.66030  0.06390  0.53620  1.0000
  H   H48       1.0  0.33970  0.06390  0.96380  1.0000
  C   C41       1.0  0.83906  0.65870  0.46513  1.0000
  C   C42       1.0  0.16094  0.65870  0.03487  1.0000
  C   C43       1.0  0.33906  0.15870  0.46513  1.0000
  C   C44       1.0  0.66094  0.15870  0.03487  1.0000
  C   C45       1.0  0.16094  0.34130  0.53487  1.0000
  C   C46       1.0  0.83906  0.34130  0.96513  1.0000
  C   C47       1.0  0.66094  0.84130  0.53487  1.0000
  C   C48       1.0  0.33906  0.84130  0.96513  1.0000
  H   H49       1.0  0.78580  0.68130  0.46540  1.0000
  H   H50       1.0  0.21420  0.68130  0.03460  1.0000
  H   H51       1.0  0.28580  0.18130  0.46540  1.0000
  H   H52       1.0  0.71420  0.18130  0.03460  1.0000
  H   H53       1.0  0.21420  0.31870  0.53460  1.0000
  H   H54       1.0  0.78580  0.31870  0.96540  1.0000
  H   H55       1.0  0.71420  0.81870  0.53460  1.0000
  H   H56       1.0  0.28580  0.81870  0.96540  1.0000
  H   H57       1.0  0.86530  0.65130  0.50320  1.0000
  H   H58       1.0  0.13470  0.65130  0.99680  1.0000
  H   H59       1.0  0.36530  0.15130  0.50320  1.0000
  H   H60       1.0  0.63470  0.15130  0.99680  1.0000
  H   H61       1.0  0.13470  0.34870  0.49680  1.0000
  H   H62       1.0  0.86530  0.34870  0.00320  1.0000
  H   H63       1.0  0.63470  0.84870  0.49680  1.0000
  H   H64       1.0  0.36530  0.84870  0.00320  1.0000
  C   C49       1.0  0.87316  0.78210  0.43788  1.0000
  C   C50       1.0  0.12684  0.78210  0.06212  1.0000
  C   C51       1.0  0.37316  0.28210  0.43788  1.0000
  C   C52       1.0  0.62684  0.28210  0.06212  1.0000
  C   C53       1.0  0.12684  0.21790  0.56212  1.0000
  C   C54       1.0  0.87316  0.21790  0.93788  1.0000
  C   C55       1.0  0.62684  0.71790  0.56212  1.0000
  C   C56       1.0  0.37316  0.71790  0.93788  1.0000
  H   H65       1.0  0.89100  0.85700  0.46530  1.0000
  H   H66       1.0  0.10900  0.85700  0.03470  1.0000
  H   H67       1.0  0.39100  0.35700  0.46530  1.0000
  H   H68       1.0  0.60900  0.35700  0.03470  1.0000
  H   H69       1.0  0.10900  0.14300  0.53470  1.0000
  H   H70       1.0  0.89100  0.14300  0.96530  1.0000
  H   H71       1.0  0.60900  0.64300  0.53470  1.0000
  H   H72       1.0  0.39100  0.64300  0.96530  1.0000
  H   H73       1.0  0.91740  0.74500  0.42420  1.0000
  H   H74       1.0  0.08260  0.74500  0.07580  1.0000
  H   H75       1.0  0.41740  0.24500  0.42420  1.0000
  H   H76       1.0  0.58260  0.24500  0.07580  1.0000
  H   H77       1.0  0.08260  0.25500  0.57580  1.0000
  H   H78       1.0  0.91740  0.25500  0.92420  1.0000
  H   H79       1.0  0.58260  0.75500  0.57580  1.0000
  H   H80       1.0  0.41740  0.75500  0.92420  1.0000
  C   C57       1.0  0.77168  0.95340  0.41375  1.0000
  C   C58       1.0  0.22832  0.95340  0.08625  1.0000
  C   C59       1.0  0.27168  0.45340  0.41375  1.0000
  C   C60       1.0  0.72832  0.45340  0.08625  1.0000
  C   C61       1.0  0.22832  0.04660  0.58625  1.0000
  C   C62       1.0  0.77168  0.04660  0.91375  1.0000
  C   C63       1.0  0.72832  0.54660  0.58625  1.0000
  C   C64       1.0  0.27168  0.54660  0.91375  1.0000
  H   H81       1.0  0.80140  0.03790  0.42950  1.0000
  H   H82       1.0  0.19860  0.03790  0.07050  1.0000
  H   H83       1.0  0.30140  0.53790  0.42950  1.0000
  H   H84       1.0  0.69860  0.53790  0.07050  1.0000
  H   H85       1.0  0.19860  0.96210  0.57050  1.0000
  H   H86       1.0  0.80140  0.96210  0.92950  1.0000
  H   H87       1.0  0.69860  0.46210  0.57050  1.0000
  H   H88       1.0  0.30140  0.46210  0.92950  1.0000
  H   H89       1.0  0.75070  0.90580  0.44290  1.0000
  H   H90       1.0  0.24930  0.90580  0.05710  1.0000
  H   H91       1.0  0.25070  0.40580  0.44290  1.0000
  H   H92       1.0  0.74930  0.40580  0.05710  1.0000
  H   H93       1.0  0.24930  0.09420  0.55710  1.0000
  H   H94       1.0  0.75070  0.09420  0.94290  1.0000
  H   H95       1.0  0.74930  0.59420  0.55710  1.0000
  H   H96       1.0  0.25070  0.59420  0.94290  1.0000
  C   C65       1.0  0.70803  0.00400  0.36967  1.0000
  C   C66       1.0  0.29197  0.00400  0.13033  1.0000
  C   C67       1.0  0.20803  0.50400  0.36967  1.0000
  C   C68       1.0  0.79197  0.50400  0.13033  1.0000
  C   C69       1.0  0.29197  0.99600  0.63033  1.0000
  C   C70       1.0  0.70803  0.99600  0.86967  1.0000
  C   C71       1.0  0.79197  0.49600  0.63033  1.0000
  C   C72       1.0  0.20803  0.49600  0.86967  1.0000
  C   C73       1.0  0.86728  0.93200  0.35961  1.0000
  C   C74       1.0  0.13272  0.93200  0.14039  1.0000
  C   C75       1.0  0.36728  0.43200  0.35961  1.0000
  C   C76       1.0  0.63272  0.43200  0.14039  1.0000
  C   C77       1.0  0.13272  0.06800  0.64039  1.0000
  C   C78       1.0  0.86728  0.06800  0.85961  1.0000
  C   C79       1.0  0.63272  0.56800  0.64039  1.0000
  C   C80       1.0  0.36728  0.56800  0.85961  1.0000
  H   H97       1.0  0.90690  0.98590  0.38400  1.0000
  H   H98       1.0  0.09310  0.98590  0.11600  1.0000
  H   H99       1.0  0.40690  0.48590  0.38400  1.0000
  H   H100      1.0  0.59310  0.48590  0.11600  1.0000
  H   H101      1.0  0.09310  0.01410  0.61600  1.0000
  H   H102      1.0  0.90690  0.01410  0.88400  1.0000
  H   H103      1.0  0.59310  0.51410  0.61600  1.0000
  H   H104      1.0  0.40690  0.51410  0.88400  1.0000
  H   H105      1.0  0.83570  0.00290  0.33620  1.0000
  H   H106      1.0  0.16430  0.00290  0.16380  1.0000
  H   H107      1.0  0.33570  0.50290  0.33620  1.0000
  H   H108      1.0  0.66430  0.50290  0.16380  1.0000
  H   H109      1.0  0.16430  0.99710  0.66380  1.0000
  H   H110      1.0  0.83570  0.99710  0.83620  1.0000
  H   H111      1.0  0.66430  0.49710  0.66380  1.0000
  H   H112      1.0  0.33570  0.49710  0.83620  1.0000
  C   C81       1.0  0.90299  0.82850  0.32477  1.0000
  C   C82       1.0  0.09701  0.82850  0.17523  1.0000
  C   C83       1.0  0.40299  0.32850  0.32477  1.0000
  C   C84       1.0  0.59701  0.32850  0.17523  1.0000
  C   C85       1.0  0.09701  0.17150  0.67523  1.0000
  C   C86       1.0  0.90299  0.17150  0.82477  1.0000
  C   C87       1.0  0.59701  0.67150  0.67523  1.0000
  C   C88       1.0  0.40299  0.67150  0.82477  1.0000
  H   H113      1.0  0.59140  0.68100  0.24630  1.0000
  H   H114      1.0  0.40860  0.68100  0.25370  1.0000
  H   H115      1.0  0.09140  0.18100  0.24630  1.0000
  H   H116      1.0  0.90860  0.18100  0.25370  1.0000
  H   H117      1.0  0.40860  0.31900  0.75370  1.0000
  H   H118      1.0  0.59140  0.31900  0.74630  1.0000
  H   H119      1.0  0.90860  0.81900  0.75370  1.0000
  H   H120      1.0  0.09140  0.81900  0.74630  1.0000
  H   H121      1.0  0.57440  0.68000  0.29570  1.0000
  H   H122      1.0  0.42560  0.68000  0.20430  1.0000
  H   H123      1.0  0.07440  0.18000  0.29570  1.0000
  H   H124      1.0  0.92560  0.18000  0.20430  1.0000
  H   H125      1.0  0.42560  0.32000  0.70430  1.0000
  H   H126      1.0  0.57440  0.32000  0.79570  1.0000
  H   H127      1.0  0.92560  0.82000  0.70430  1.0000
  H   H128      1.0  0.07440  0.82000  0.79570  1.0000
