data_image0
_chemical_formula_structural       U4O32C4H4C2H4C6H4C2H4C6H4C2H4C2
_chemical_formula_sum              "U4 O32 C24 H24"
_cell_length_a       10.7867
_cell_length_b       11.0627
_cell_length_c       11.918
_cell_angle_alpha    85.062
_cell_angle_beta     72.924
_cell_angle_gamma    85.378

_space_group_name_H-M_alt    "P 1"
_space_group_IT_number       1

loop_
  _space_group_symop_operation_xyz
  'x, y, z'

loop_
  _atom_site_type_symbol
  _atom_site_label
  _atom_site_symmetry_multiplicity
  _atom_site_fract_x
  _atom_site_fract_y
  _atom_site_fract_z
  _atom_site_occupancy
  U   U1        1.0  0.32095  0.52001  0.25950  1.0000
  U   U2        1.0  0.67905  0.47999  0.74050  1.0000
  U   U3        1.0  0.73741  0.97250  0.68699  1.0000
  U   U4        1.0  0.26259  0.02750  0.31301  1.0000
  O   O1        1.0  0.33620  0.39640  0.17130  1.0000
  O   O2        1.0  0.66380  0.60360  0.82870  1.0000
  O   O3        1.0  0.30470  0.64550  0.34540  1.0000
  O   O4        1.0  0.69530  0.35450  0.65460  1.0000
  O   O5        1.0  0.84810  0.09050  0.66040  1.0000
  O   O6        1.0  0.15190  0.90950  0.33960  1.0000
  O   O7        1.0  0.62790  0.85580  0.71320  1.0000
  O   O8        1.0  0.37210  0.14420  0.28680  1.0000
  O   O9        1.0  0.37710  0.39640  0.42530  1.0000
  O   O10       1.0  0.62290  0.60360  0.57470  1.0000
  O   O11       1.0  0.54060  0.44770  0.27480  1.0000
  O   O12       1.0  0.45940  0.55230  0.72520  1.0000
  O   O13       1.0  0.56430  0.10960  0.63880  1.0000
  O   O14       1.0  0.43570  0.89040  0.36120  1.0000
  O   O15       1.0  0.70720  0.02990  0.48900  1.0000
  O   O16       1.0  0.29280  0.97010  0.51100  1.0000
  O   O17       1.0  0.48730  0.63210  0.10860  1.0000
  O   O18       1.0  0.51270  0.36790  0.89140  1.0000
  O   O19       1.0  0.28730  0.65960  0.09660  1.0000
  O   O20       1.0  0.71270  0.34040  0.90340  1.0000
  O   O21       1.0  0.25620  0.04400  0.10650  1.0000
  O   O22       1.0  0.74380  0.95600  0.89350  1.0000
  O   O23       1.0  0.40050  0.91500  0.14980  1.0000
  O   O24       1.0  0.59950  0.08500  0.85020  1.0000
  O   O25       1.0  0.08740  0.53890  0.25890  1.0000
  O   O26       1.0  0.91260  0.46110  0.74110  1.0000
  O   O27       1.0  0.13710  0.42850  0.40230  1.0000
  O   O28       1.0  0.86290  0.57150  0.59770  1.0000
  O   O29       1.0  0.07910  0.17180  0.29460  1.0000
  O   O30       1.0  0.92090  0.82820  0.70540  1.0000
  O   O31       1.0  0.11280  0.14350  0.46680  1.0000
  O   O32       1.0  0.88720  0.85650  0.53320  1.0000
  C   C1        1.0  0.49820  0.38630  0.37310  1.0000
  C   C2        1.0  0.50180  0.61370  0.62690  1.0000
  C   C3        1.0  0.58750  0.30480  0.42600  1.0000
  C   C4        1.0  0.41250  0.69520  0.57400  1.0000
  H   H1        1.0  0.58740  0.33520  0.50180  1.0000
  H   H2        1.0  0.41260  0.66480  0.49820  1.0000
  H   H3        1.0  0.67710  0.30620  0.37260  1.0000
  H   H4        1.0  0.32290  0.69380  0.62740  1.0000
  C   C5        1.0  0.54430  0.17480  0.44630  1.0000
  C   C6        1.0  0.45570  0.82520  0.55370  1.0000
  H   H5        1.0  0.44880  0.17570  0.48030  1.0000
  H   H6        1.0  0.55120  0.82430  0.51970  1.0000
  H   H7        1.0  0.56730  0.13670  0.37020  1.0000
  H   H8        1.0  0.43270  0.86330  0.62980  1.0000
  C   C7        1.0  0.60810  0.10130  0.52810  1.0000
  C   C8        1.0  0.39190  0.89870  0.47190  1.0000
  C   C9        1.0  0.40670  0.68650  0.06030  1.0000
  C   C10       1.0  0.59330  0.31350  0.93970  1.0000
  C   C11       1.0  0.44930  0.77960  0.95880  1.0000
  C   C12       1.0  0.55070  0.22040  0.04120  1.0000
  H   H9        1.0  0.45760  0.74180  0.88440  1.0000
  H   H10       1.0  0.54240  0.25820  0.11560  1.0000
  H   H11       1.0  0.53590  0.80570  0.95580  1.0000
  H   H12       1.0  0.46410  0.19430  0.04420  1.0000
  C   C13       1.0  0.35410  0.89130  0.96850  1.0000
  C   C14       1.0  0.64590  0.10870  0.03150  1.0000
  H   H13       1.0  0.38630  0.94910  0.89980  1.0000
  H   H14       1.0  0.61370  0.05090  0.10020  1.0000
  H   H15       1.0  0.26870  0.86590  0.96690  1.0000
  H   H16       1.0  0.73130  0.13410  0.03310  1.0000
  C   C15       1.0  0.33720  0.95390  0.07890  1.0000
  C   C16       1.0  0.66280  0.04610  0.92110  1.0000
  C   C17       1.0  0.05740  0.45930  0.34460  1.0000
  C   C18       1.0  0.94260  0.54070  0.65540  1.0000
  C   C19       1.0  0.93180  0.39790  0.37300  1.0000
  C   C20       1.0  0.06820  0.60210  0.62700  1.0000
  H   H17       1.0  0.91630  0.37760  0.29910  1.0000
  H   H18       1.0  0.08370  0.62240  0.70090  1.0000
  H   H19       1.0  0.85940  0.45430  0.41300  1.0000
  H   H20       1.0  0.14060  0.54570  0.58700  1.0000
  C   C21       1.0  0.93340  0.28120  0.45260  1.0000
  C   C22       1.0  0.06660  0.71880  0.54740  1.0000
  H   H21       1.0  0.93620  0.30300  0.53060  1.0000
  H   H22       1.0  0.06380  0.69700  0.46940  1.0000
  H   H23       1.0  0.85220  0.23990  0.46390  1.0000
  H   H24       1.0  0.14780  0.76010  0.53610  1.0000
  C   C23       1.0  0.04730  0.19550  0.40230  1.0000
  C   C24       1.0  0.95270  0.80450  0.59770  1.0000
