data_image0
_chemical_formula_structural       C16H4C4H4C4N8O16Zn2
_chemical_formula_sum              "C24 H8 N8 O16 Zn2"
_cell_length_a       6.587
_cell_length_b       17.528
_cell_length_c       10.73
_cell_angle_alpha    90
_cell_angle_beta     101.217
_cell_angle_gamma    90

_space_group_name_H-M_alt    "P 1"
_space_group_IT_number       1

loop_
  _space_group_symop_operation_xyz
  'x, y, z'

loop_
  _atom_site_type_symbol
  _atom_site_label
  _atom_site_symmetry_multiplicity
  _atom_site_fract_x
  _atom_site_fract_y
  _atom_site_fract_z
  _atom_site_occupancy
  C   C1        1.0  0.89830  0.99117  0.16250  1.0000
  C   C2        1.0  0.60170  0.49117  0.33750  1.0000
  C   C3        1.0  0.10170  0.00883  0.83750  1.0000
  C   C4        1.0  0.39830  0.50883  0.66250  1.0000
  C   C5        1.0  0.90570  0.06413  0.08660  1.0000
  C   C6        1.0  0.59430  0.56413  0.41340  1.0000
  C   C7        1.0  0.09430  0.93587  0.91340  1.0000
  C   C8        1.0  0.40570  0.43587  0.58660  1.0000
  C   C9        1.0  0.07660  0.11256  0.10300  1.0000
  C   C10       1.0  0.42340  0.61256  0.39700  1.0000
  C   C11       1.0  0.92340  0.88744  0.89700  1.0000
  C   C12       1.0  0.57660  0.38744  0.60300  1.0000
  C   C13       1.0  0.90070  0.19320  0.95360  1.0000
  C   C14       1.0  0.59930  0.69320  0.54640  1.0000
  C   C15       1.0  0.09930  0.80680  0.04640  1.0000
  C   C16       1.0  0.40070  0.30680  0.45360  1.0000
  H   H1        1.0  0.89420  0.23770  0.90600  1.0000
  H   H2        1.0  0.60580  0.73770  0.59400  1.0000
  H   H3        1.0  0.10580  0.76230  0.09400  1.0000
  H   H4        1.0  0.39420  0.26230  0.40600  1.0000
  C   C17       1.0  0.73080  0.14491  0.93450  1.0000
  C   C18       1.0  0.76920  0.64491  0.56550  1.0000
  C   C19       1.0  0.26920  0.85509  0.06550  1.0000
  C   C20       1.0  0.23080  0.35509  0.43450  1.0000
  H   H5        1.0  0.61380  0.15710  0.87410  1.0000
  H   H6        1.0  0.88620  0.65710  0.62590  1.0000
  H   H7        1.0  0.38620  0.84290  0.12590  1.0000
  H   H8        1.0  0.11380  0.34290  0.37410  1.0000
  C   C21       1.0  0.27840  0.09915  0.19650  1.0000
  C   C22       1.0  0.22160  0.59915  0.30350  1.0000
  C   C23       1.0  0.72160  0.90085  0.80350  1.0000
  C   C24       1.0  0.77840  0.40085  0.69650  1.0000
  N   N1        1.0  0.73420  0.08153  0.00190  1.0000
  N   N2        1.0  0.76580  0.58153  0.49810  1.0000
  N   N3        1.0  0.26580  0.91847  0.99810  1.0000
  N   N4        1.0  0.23420  0.41847  0.50190  1.0000
  N   N5        1.0  0.07330  0.17797  0.03800  1.0000
  N   N6        1.0  0.42670  0.67797  0.46200  1.0000
  N   N7        1.0  0.92670  0.82203  0.96200  1.0000
  N   N8        1.0  0.57330  0.32203  0.53800  1.0000
  O   O1        1.0  0.73420  0.95096  0.13090  1.0000
  O   O2        1.0  0.76580  0.45096  0.36910  1.0000
  O   O3        1.0  0.26580  0.04904  0.86910  1.0000
  O   O4        1.0  0.23420  0.54904  0.63090  1.0000
  O   O5        1.0  0.04650  0.97570  0.24660  1.0000
  O   O6        1.0  0.45350  0.47570  0.25340  1.0000
  O   O7        1.0  0.95350  0.02430  0.75340  1.0000
  O   O8        1.0  0.54650  0.52430  0.74660  1.0000
  O   O9        1.0  0.29190  0.13115  0.30280  1.0000
  O   O10       1.0  0.20810  0.63115  0.19720  1.0000
  O   O11       1.0  0.70810  0.86885  0.69720  1.0000
  O   O12       1.0  0.79190  0.36885  0.80280  1.0000
  O   O13       1.0  0.41750  0.06151  0.16200  1.0000
  O   O14       1.0  0.08250  0.56151  0.33800  1.0000
  O   O15       1.0  0.58250  0.93849  0.83800  1.0000
  O   O16       1.0  0.91750  0.43849  0.66200  1.0000
  Zn  Zn1       1.0  0.50000  0.00000  0.00000  1.0000
  Zn  Zn2       1.0  0.00000  0.50000  0.50000  1.0000
