data_image0
_chemical_formula_structural       Co4O8N24C4H4
_chemical_formula_sum              "Co4 O8 N24 C4 H4"
_cell_length_a       10.0878
_cell_length_b       13.8377
_cell_length_c       6.41
_cell_angle_alpha    90
_cell_angle_beta     94.6525
_cell_angle_gamma    90

_space_group_name_H-M_alt    "P 1"
_space_group_IT_number       1

loop_
  _space_group_symop_operation_xyz
  'x, y, z'

loop_
  _atom_site_type_symbol
  _atom_site_label
  _atom_site_symmetry_multiplicity
  _atom_site_fract_x
  _atom_site_fract_y
  _atom_site_fract_z
  _atom_site_occupancy
  Co  Co1       1.0  0.74996  0.24932  0.02389  1.0000
  Co  Co2       1.0  0.25004  0.74932  0.47611  1.0000
  Co  Co3       1.0  0.25004  0.75068  0.97611  1.0000
  Co  Co4       1.0  0.74996  0.25068  0.52389  1.0000
  O   O1        1.0  0.75100  0.10229  0.45050  1.0000
  O   O2        1.0  0.24900  0.60229  0.04950  1.0000
  O   O3        1.0  0.24900  0.89771  0.54950  1.0000
  O   O4        1.0  0.75100  0.39771  0.95050  1.0000
  O   O5        1.0  0.75260  0.10147  0.09850  1.0000
  O   O6        1.0  0.24740  0.60147  0.40150  1.0000
  O   O7        1.0  0.24740  0.89853  0.90150  1.0000
  O   O8        1.0  0.75260  0.39853  0.59850  1.0000
  N   N1        1.0  0.61310  0.27023  0.25710  1.0000
  N   N2        1.0  0.38690  0.77023  0.24290  1.0000
  N   N3        1.0  0.38690  0.72977  0.74290  1.0000
  N   N4        1.0  0.61310  0.22977  0.75710  1.0000
  N   N5        1.0  0.50510  0.30374  0.24250  1.0000
  N   N6        1.0  0.49490  0.80374  0.25750  1.0000
  N   N7        1.0  0.49490  0.69626  0.75750  1.0000
  N   N8        1.0  0.50510  0.19626  0.74250  1.0000
  N   N9        1.0  0.39830  0.33430  0.22660  1.0000
  N   N10       1.0  0.60170  0.83430  0.27340  1.0000
  N   N11       1.0  0.60170  0.66570  0.77340  1.0000
  N   N12       1.0  0.39830  0.16570  0.72660  1.0000
  N   N13       1.0  0.88660  0.22523  0.79060  1.0000
  N   N14       1.0  0.11340  0.72523  0.70940  1.0000
  N   N15       1.0  0.11340  0.77477  0.20940  1.0000
  N   N16       1.0  0.88660  0.27477  0.29060  1.0000
  N   N17       1.0  0.96550  0.16110  0.80080  1.0000
  N   N18       1.0  0.03450  0.66110  0.69920  1.0000
  N   N19       1.0  0.03450  0.83890  0.19920  1.0000
  N   N20       1.0  0.96550  0.33890  0.30080  1.0000
  N   N21       1.0  0.04050  0.09820  0.81490  1.0000
  N   N22       1.0  0.95950  0.59820  0.68510  1.0000
  N   N23       1.0  0.95950  0.90180  0.18510  1.0000
  N   N24       1.0  0.04050  0.40180  0.31490  1.0000
  C   C1        1.0  0.74930  0.06240  0.27350  1.0000
  C   C2        1.0  0.25070  0.56240  0.22650  1.0000
  C   C3        1.0  0.25070  0.93760  0.72650  1.0000
  C   C4        1.0  0.74930  0.43760  0.77350  1.0000
  H   H1        1.0  0.74490  0.99520  0.27330  1.0000
  H   H2        1.0  0.25510  0.49520  0.22670  1.0000
  H   H3        1.0  0.25510  0.00480  0.72670  1.0000
  H   H4        1.0  0.74490  0.50480  0.77330  1.0000
