data_image0
_chemical_formula_structural       Fe4O8N24C4H4
_chemical_formula_sum              "Fe4 O8 N24 C4 H4"
_cell_length_a       10.1584
_cell_length_b       13.8447
_cell_length_c       6.4644
_cell_angle_alpha    90
_cell_angle_beta     94.697
_cell_angle_gamma    90

_space_group_name_H-M_alt    "P 1"
_space_group_IT_number       1

loop_
  _space_group_symop_operation_xyz
  'x, y, z'

loop_
  _atom_site_type_symbol
  _atom_site_label
  _atom_site_symmetry_multiplicity
  _atom_site_fract_x
  _atom_site_fract_y
  _atom_site_fract_z
  _atom_site_occupancy
  Fe  Fe1       1.0  0.74910  0.24921  0.02480  1.0000
  Fe  Fe2       1.0  0.25090  0.74921  0.47520  1.0000
  Fe  Fe3       1.0  0.25090  0.75079  0.97520  1.0000
  Fe  Fe4       1.0  0.74910  0.25079  0.52480  1.0000
  O   O1        1.0  0.75087  0.10099  0.45010  1.0000
  O   O2        1.0  0.24913  0.60099  0.04990  1.0000
  O   O3        1.0  0.24913  0.89901  0.54990  1.0000
  O   O4        1.0  0.75087  0.39901  0.95010  1.0000
  O   O5        1.0  0.75179  0.10020  0.10150  1.0000
  O   O6        1.0  0.24821  0.60020  0.39850  1.0000
  O   O7        1.0  0.24821  0.89980  0.89850  1.0000
  O   O8        1.0  0.75179  0.39980  0.60150  1.0000
  N   N1        1.0  0.61010  0.27319  0.25660  1.0000
  N   N2        1.0  0.38990  0.77319  0.24340  1.0000
  N   N3        1.0  0.38990  0.72681  0.74340  1.0000
  N   N4        1.0  0.61010  0.22681  0.75660  1.0000
  N   N5        1.0  0.50120  0.30432  0.24230  1.0000
  N   N6        1.0  0.49880  0.80432  0.25770  1.0000
  N   N7        1.0  0.49880  0.69568  0.75770  1.0000
  N   N8        1.0  0.50120  0.19568  0.74230  1.0000
  N   N9        1.0  0.39490  0.33390  0.22620  1.0000
  N   N10       1.0  0.60510  0.83390  0.27380  1.0000
  N   N11       1.0  0.60510  0.66610  0.77380  1.0000
  N   N12       1.0  0.39490  0.16610  0.72620  1.0000
  N   N13       1.0  0.88700  0.22144  0.79180  1.0000
  N   N14       1.0  0.11300  0.72144  0.70820  1.0000
  N   N15       1.0  0.11300  0.77856  0.20820  1.0000
  N   N16       1.0  0.88700  0.27856  0.29180  1.0000
  N   N17       1.0  0.96840  0.15920  0.80200  1.0000
  N   N18       1.0  0.03160  0.65920  0.69800  1.0000
  N   N19       1.0  0.03160  0.84080  0.19800  1.0000
  N   N20       1.0  0.96840  0.34080  0.30200  1.0000
  N   N21       1.0  0.04430  0.09730  0.81610  1.0000
  N   N22       1.0  0.95570  0.59730  0.68390  1.0000
  N   N23       1.0  0.95570  0.90270  0.18390  1.0000
  N   N24       1.0  0.04430  0.40270  0.31610  1.0000
  C   C1        1.0  0.74900  0.06090  0.27520  1.0000
  C   C2        1.0  0.25100  0.56090  0.22480  1.0000
  C   C3        1.0  0.25100  0.93910  0.72480  1.0000
  C   C4        1.0  0.74900  0.43910  0.77520  1.0000
  H   H1        1.0  0.74500  0.99370  0.27510  1.0000
  H   H2        1.0  0.25500  0.49370  0.22490  1.0000
  H   H3        1.0  0.25500  0.00630  0.72490  1.0000
  H   H4        1.0  0.74500  0.50630  0.77510  1.0000
