data_image0
_chemical_formula_structural       In4C24H8C16H8C16H8C24H24C8H24C8H24O32
_chemical_formula_sum              "In4 C96 H96 O32"
_cell_length_a       13.4918
_cell_length_b       14.7515
_cell_length_c       16.3307
_cell_angle_alpha    90
_cell_angle_beta     108.57
_cell_angle_gamma    90

_space_group_name_H-M_alt    "P 1"
_space_group_IT_number       1

loop_
  _space_group_symop_operation_xyz
  'x, y, z'

loop_
  _atom_site_type_symbol
  _atom_site_label
  _atom_site_symmetry_multiplicity
  _atom_site_fract_x
  _atom_site_fract_y
  _atom_site_fract_z
  _atom_site_occupancy
  In  In1       1.0  0.00000  0.63685  0.25000  1.0000
  In  In2       1.0  0.50000  0.13685  0.25000  1.0000
  In  In3       1.0  0.00000  0.36315  0.75000  1.0000
  In  In4       1.0  0.50000  0.86315  0.75000  1.0000
  C   C1        1.0  0.15030  0.51880  0.31330  1.0000
  C   C2        1.0  0.84970  0.51880  0.18670  1.0000
  C   C3        1.0  0.65030  0.01880  0.31330  1.0000
  C   C4        1.0  0.34970  0.01880  0.18670  1.0000
  C   C5        1.0  0.84970  0.48120  0.68670  1.0000
  C   C6        1.0  0.15030  0.48120  0.81330  1.0000
  C   C7        1.0  0.34970  0.98120  0.68670  1.0000
  C   C8        1.0  0.65030  0.98120  0.81330  1.0000
  C   C9        1.0  0.23230  0.45120  0.35650  1.0000
  C   C10       1.0  0.76770  0.45120  0.14350  1.0000
  C   C11       1.0  0.73230  0.95120  0.35650  1.0000
  C   C12       1.0  0.26770  0.95120  0.14350  1.0000
  C   C13       1.0  0.76770  0.54880  0.64350  1.0000
  C   C14       1.0  0.23230  0.54880  0.85650  1.0000
  C   C15       1.0  0.26770  0.04880  0.64350  1.0000
  C   C16       1.0  0.73230  0.04880  0.85650  1.0000
  C   C17       1.0  0.26740  0.44750  0.44740  1.0000
  C   C18       1.0  0.73260  0.44750  0.05260  1.0000
  C   C19       1.0  0.76740  0.94750  0.44740  1.0000
  C   C20       1.0  0.23260  0.94750  0.05260  1.0000
  C   C21       1.0  0.73260  0.55250  0.55260  1.0000
  C   C22       1.0  0.26740  0.55250  0.94740  1.0000
  C   C23       1.0  0.23260  0.05250  0.55260  1.0000
  C   C24       1.0  0.76740  0.05250  0.94740  1.0000
  H   H1        1.0  0.24000  0.48780  0.47840  1.0000
  H   H2        1.0  0.76000  0.48780  0.02160  1.0000
  H   H3        1.0  0.74000  0.98780  0.47840  1.0000
  H   H4        1.0  0.26000  0.98780  0.02160  1.0000
  H   H5        1.0  0.76000  0.51220  0.52160  1.0000
  H   H6        1.0  0.24000  0.51220  0.97840  1.0000
  H   H7        1.0  0.26000  0.01220  0.52160  1.0000
  H   H8        1.0  0.74000  0.01220  0.97840  1.0000
  C   C25       1.0  0.34190  0.38490  0.49160  1.0000
  C   C26       1.0  0.65810  0.38490  0.00840  1.0000
  C   C27       1.0  0.84190  0.88490  0.49160  1.0000
  C   C28       1.0  0.15810  0.88490  0.00840  1.0000
  C   C29       1.0  0.65810  0.61510  0.50840  1.0000
  C   C30       1.0  0.34190  0.61510  0.99160  1.0000
  C   C31       1.0  0.15810  0.11510  0.50840  1.0000
  C   C32       1.0  0.84190  0.11510  0.99160  1.0000
  C   C33       1.0  0.38110  0.32610  0.44260  1.0000
  C   C34       1.0  0.61890  0.32610  0.05740  1.0000
  C   C35       1.0  0.88110  0.82610  0.44260  1.0000
  C   C36       1.0  0.11890  0.82610  0.05740  1.0000
  C   C37       1.0  0.61890  0.67390  0.55740  1.0000
  C   C38       1.0  0.38110  0.67390  0.94260  1.0000
  C   C39       1.0  0.11890  0.17390  0.55740  1.0000
  C   C40       1.0  0.88110  0.17390  0.94260  1.0000
  H   H9        1.0  0.43140  0.28360  0.47070  1.0000
  H   H10       1.0  0.56860  0.28360  0.02930  1.0000
  H   H11       1.0  0.93140  0.78360  0.47070  1.0000
  H   H12       1.0  0.06860  0.78360  0.02930  1.0000
  H   H13       1.0  0.56860  0.71640  0.52930  1.0000
  H   H14       1.0  0.43140  0.71640  0.97070  1.0000
  H   H15       1.0  0.06860  0.21640  0.52930  1.0000
  H   H16       1.0  0.93140  0.21640  0.97070  1.0000
  C   C41       1.0  0.34700  0.32930  0.35340  1.0000
  C   C42       1.0  0.65300  0.32930  0.14660  1.0000
  C   C43       1.0  0.84700  0.82930  0.35340  1.0000
  C   C44       1.0  0.15300  0.82930  0.14660  1.0000
  C   C45       1.0  0.65300  0.67070  0.64660  1.0000
  C   C46       1.0  0.34700  0.67070  0.85340  1.0000
  C   C47       1.0  0.15300  0.17070  0.64660  1.0000
  C   C48       1.0  0.84700  0.17070  0.85340  1.0000
  C   C49       1.0  0.27150  0.39220  0.30940  1.0000
  C   C50       1.0  0.72850  0.39220  0.19060  1.0000
  C   C51       1.0  0.77150  0.89220  0.30940  1.0000
  C   C52       1.0  0.22850  0.89220  0.19060  1.0000
  C   C53       1.0  0.72850  0.60780  0.69060  1.0000
  C   C54       1.0  0.27150  0.60780  0.80940  1.0000
  C   C55       1.0  0.22850  0.10780  0.69060  1.0000
  C   C56       1.0  0.77150  0.10780  0.80940  1.0000
  H   H17       1.0  0.24820  0.39400  0.24930  1.0000
  H   H18       1.0  0.75180  0.39400  0.25070  1.0000
  H   H19       1.0  0.74820  0.89400  0.24930  1.0000
  H   H20       1.0  0.25180  0.89400  0.25070  1.0000
  H   H21       1.0  0.75180  0.60600  0.75070  1.0000
  H   H22       1.0  0.24820  0.60600  0.74930  1.0000
  H   H23       1.0  0.25180  0.10600  0.75070  1.0000
  H   H24       1.0  0.74820  0.10600  0.74930  1.0000
  C   C57       1.0  0.39180  0.26310  0.30470  1.0000
  C   C58       1.0  0.60820  0.26310  0.19530  1.0000
  C   C59       1.0  0.89180  0.76310  0.30470  1.0000
  C   C60       1.0  0.10820  0.76310  0.19530  1.0000
  C   C61       1.0  0.60820  0.73690  0.69530  1.0000
  C   C62       1.0  0.39180  0.73690  0.80470  1.0000
  C   C63       1.0  0.10820  0.23690  0.69530  1.0000
  C   C64       1.0  0.89180  0.23690  0.80470  1.0000
  C   C65       1.0  0.38240  0.38160  0.59100  1.0000
  C   C66       1.0  0.61760  0.38160  0.90900  1.0000
  C   C67       1.0  0.88240  0.88160  0.59100  1.0000
  C   C68       1.0  0.11760  0.88160  0.90900  1.0000
  C   C69       1.0  0.61760  0.61840  0.40900  1.0000
  C   C70       1.0  0.38240  0.61840  0.09100  1.0000
  C   C71       1.0  0.11760  0.11840  0.40900  1.0000
  C   C72       1.0  0.88240  0.11840  0.09100  1.0000
  C   C73       1.0  0.48130  0.43930  0.62000  1.0000
  C   C74       1.0  0.51870  0.43930  0.88000  1.0000
  C   C75       1.0  0.98130  0.93930  0.62000  1.0000
  C   C76       1.0  0.01870  0.93930  0.88000  1.0000
  C   C77       1.0  0.51870  0.56070  0.38000  1.0000
  C   C78       1.0  0.48130  0.56070  0.12000  1.0000
  C   C79       1.0  0.01870  0.06070  0.38000  1.0000
  C   C80       1.0  0.98130  0.06070  0.12000  1.0000
  H   H25       1.0  0.46500  0.50030  0.59970  1.0000
  H   H26       1.0  0.53500  0.50030  0.90030  1.0000
  H   H27       1.0  0.96500  0.00030  0.59970  1.0000
  H   H28       1.0  0.03500  0.00030  0.90030  1.0000
  H   H29       1.0  0.53500  0.49970  0.40030  1.0000
  H   H30       1.0  0.46500  0.49970  0.09970  1.0000
  H   H31       1.0  0.03500  0.99970  0.40030  1.0000
  H   H32       1.0  0.96500  0.99970  0.09970  1.0000
  H   H33       1.0  0.53240  0.41460  0.59650  1.0000
  H   H34       1.0  0.46760  0.41460  0.90350  1.0000
  H   H35       1.0  0.03240  0.91460  0.59650  1.0000
  H   H36       1.0  0.96760  0.91460  0.90350  1.0000
  H   H37       1.0  0.46760  0.58540  0.40350  1.0000
  H   H38       1.0  0.53240  0.58540  0.09650  1.0000
  H   H39       1.0  0.96760  0.08540  0.40350  1.0000
  H   H40       1.0  0.03240  0.08540  0.09650  1.0000
  H   H41       1.0  0.50890  0.43930  0.68190  1.0000
  H   H42       1.0  0.49110  0.43930  0.81810  1.0000
  H   H43       1.0  0.00890  0.93930  0.68190  1.0000
  H   H44       1.0  0.99110  0.93930  0.81810  1.0000
  H   H45       1.0  0.49110  0.56070  0.31810  1.0000
  H   H46       1.0  0.50890  0.56070  0.18190  1.0000
  H   H47       1.0  0.99110  0.06070  0.31810  1.0000
  H   H48       1.0  0.00890  0.06070  0.18190  1.0000
  C   C81       1.0  0.30010  0.41230  0.62960  1.0000
  C   C82       1.0  0.69990  0.41230  0.87040  1.0000
  C   C83       1.0  0.80010  0.91230  0.62960  1.0000
  C   C84       1.0  0.19990  0.91230  0.87040  1.0000
  C   C85       1.0  0.69990  0.58770  0.37040  1.0000
  C   C86       1.0  0.30010  0.58770  0.12960  1.0000
  C   C87       1.0  0.19990  0.08770  0.37040  1.0000
  C   C88       1.0  0.80010  0.08770  0.12960  1.0000
  H   H49       1.0  0.28130  0.47400  0.61340  1.0000
  H   H50       1.0  0.71870  0.47400  0.88660  1.0000
  H   H51       1.0  0.78130  0.97400  0.61340  1.0000
  H   H52       1.0  0.21870  0.97400  0.88660  1.0000
  H   H53       1.0  0.71870  0.52600  0.38660  1.0000
  H   H54       1.0  0.28130  0.52600  0.11340  1.0000
  H   H55       1.0  0.21870  0.02600  0.38660  1.0000
  H   H56       1.0  0.78130  0.02600  0.11340  1.0000
  H   H57       1.0  0.32730  0.40790  0.69140  1.0000
  H   H58       1.0  0.67270  0.40790  0.80860  1.0000
  H   H59       1.0  0.82730  0.90790  0.69140  1.0000
  H   H60       1.0  0.17270  0.90790  0.80860  1.0000
  H   H61       1.0  0.67270  0.59210  0.30860  1.0000
  H   H62       1.0  0.32730  0.59210  0.19140  1.0000
  H   H63       1.0  0.17270  0.09210  0.30860  1.0000
  H   H64       1.0  0.82730  0.09210  0.19140  1.0000
  H   H65       1.0  0.23940  0.37440  0.60860  1.0000
  H   H66       1.0  0.76060  0.37440  0.89140  1.0000
  H   H67       1.0  0.73940  0.87440  0.60860  1.0000
  H   H68       1.0  0.26060  0.87440  0.89140  1.0000
  H   H69       1.0  0.76060  0.62560  0.39140  1.0000
  H   H70       1.0  0.23940  0.62560  0.10860  1.0000
  H   H71       1.0  0.26060  0.12560  0.39140  1.0000
  H   H72       1.0  0.73940  0.12560  0.10860  1.0000
  C   C89       1.0  0.40340  0.28350  0.62180  1.0000
  C   C90       1.0  0.59660  0.28350  0.87820  1.0000
  C   C91       1.0  0.90340  0.78350  0.62180  1.0000
  C   C92       1.0  0.09660  0.78350  0.87820  1.0000
  C   C93       1.0  0.59660  0.71650  0.37820  1.0000
  C   C94       1.0  0.40340  0.71650  0.12180  1.0000
  C   C95       1.0  0.09660  0.21650  0.37820  1.0000
  C   C96       1.0  0.90340  0.21650  0.12180  1.0000
  H   H73       1.0  0.42880  0.28210  0.68380  1.0000
  H   H74       1.0  0.57120  0.28210  0.81620  1.0000
  H   H75       1.0  0.92880  0.78210  0.68380  1.0000
  H   H76       1.0  0.07120  0.78210  0.81620  1.0000
  H   H77       1.0  0.57120  0.71790  0.31620  1.0000
  H   H78       1.0  0.42880  0.71790  0.18380  1.0000
  H   H79       1.0  0.07120  0.21790  0.31620  1.0000
  H   H80       1.0  0.92880  0.21790  0.18380  1.0000
  H   H81       1.0  0.45480  0.25760  0.59950  1.0000
  H   H82       1.0  0.54520  0.25760  0.90050  1.0000
  H   H83       1.0  0.95480  0.75760  0.59950  1.0000
  H   H84       1.0  0.04520  0.75760  0.90050  1.0000
  H   H85       1.0  0.54520  0.74240  0.40050  1.0000
  H   H86       1.0  0.45480  0.74240  0.09950  1.0000
  H   H87       1.0  0.04520  0.24240  0.40050  1.0000
  H   H88       1.0  0.95480  0.24240  0.09950  1.0000
  H   H89       1.0  0.33970  0.24920  0.60140  1.0000
  H   H90       1.0  0.66030  0.24920  0.89860  1.0000
  H   H91       1.0  0.83970  0.74920  0.60140  1.0000
  H   H92       1.0  0.16030  0.74920  0.89860  1.0000
  H   H93       1.0  0.66030  0.75080  0.39860  1.0000
  H   H94       1.0  0.33970  0.75080  0.10140  1.0000
  H   H95       1.0  0.16030  0.25080  0.39860  1.0000
  H   H96       1.0  0.83970  0.25080  0.10140  1.0000
  O   O1        1.0  0.11070  0.52050  0.23360  1.0000
  O   O2        1.0  0.88930  0.52050  0.26640  1.0000
  O   O3        1.0  0.61070  0.02050  0.23360  1.0000
  O   O4        1.0  0.38930  0.02050  0.26640  1.0000
  O   O5        1.0  0.88930  0.47950  0.76640  1.0000
  O   O6        1.0  0.11070  0.47950  0.73360  1.0000
  O   O7        1.0  0.38930  0.97950  0.76640  1.0000
  O   O8        1.0  0.61070  0.97950  0.73360  1.0000
  O   O9        1.0  0.12050  0.57490  0.36060  1.0000
  O   O10       1.0  0.87950  0.57490  0.13940  1.0000
  O   O11       1.0  0.62050  0.07490  0.36060  1.0000
  O   O12       1.0  0.37950  0.07490  0.13940  1.0000
  O   O13       1.0  0.87950  0.42510  0.63940  1.0000
  O   O14       1.0  0.12050  0.42510  0.86060  1.0000
  O   O15       1.0  0.37950  0.92510  0.63940  1.0000
  O   O16       1.0  0.62050  0.92510  0.86060  1.0000
  O   O17       1.0  0.36150  0.25880  0.22590  1.0000
  O   O18       1.0  0.63850  0.25880  0.27410  1.0000
  O   O19       1.0  0.86150  0.75880  0.22590  1.0000
  O   O20       1.0  0.13850  0.75880  0.27410  1.0000
  O   O21       1.0  0.63850  0.74120  0.77410  1.0000
  O   O22       1.0  0.36150  0.74120  0.72590  1.0000
  O   O23       1.0  0.13850  0.24120  0.77410  1.0000
  O   O24       1.0  0.86150  0.24120  0.72590  1.0000
  O   O25       1.0  0.46370  0.21070  0.34960  1.0000
  O   O26       1.0  0.53630  0.21070  0.15040  1.0000
  O   O27       1.0  0.96370  0.71070  0.34960  1.0000
  O   O28       1.0  0.03630  0.71070  0.15040  1.0000
  O   O29       1.0  0.53630  0.78930  0.65040  1.0000
  O   O30       1.0  0.46370  0.78930  0.84960  1.0000
  O   O31       1.0  0.03630  0.28930  0.65040  1.0000
  O   O32       1.0  0.96370  0.28930  0.84960  1.0000
