data_image0
_chemical_formula_structural       C8H4C2H4C2H2C2H4C2H4C2H4C2H4C2H2C2H4C2H4C2H4C2H4C2H2C2H4C2H4C4H2C2H4C2H4C2H4C2H4C10H4C2H4C2H4C2H4C2H2C4H4C2H4C2H4C2H2C4H4C4H2C2H6C2H6C2H2C2H6C2H6C2Cs6N28O28C2H2C2H6C2H6N2O2
_chemical_formula_sum              "C102 H150 Cs6 N30 O30"
_cell_length_a       15.009
_cell_length_b       15.717
_cell_length_c       16.17
_cell_angle_alpha    64.991
_cell_angle_beta     85.861
_cell_angle_gamma    81.675

_space_group_name_H-M_alt    "P 1"
_space_group_IT_number       1

loop_
  _space_group_symop_operation_xyz
  'x, y, z'

loop_
  _atom_site_type_symbol
  _atom_site_label
  _atom_site_symmetry_multiplicity
  _atom_site_fract_x
  _atom_site_fract_y
  _atom_site_fract_z
  _atom_site_occupancy
  C   C1        1.0  0.46570  0.57890  0.07730  1.0000
  C   C2        1.0  0.53430  0.42110  0.92270  1.0000
  C   C3        1.0  0.57880  0.49120  0.17320  1.0000
  C   C4        1.0  0.42120  0.50880  0.82680  1.0000
  C   C5        1.0  0.60650  0.56840  0.02300  1.0000
  C   C6        1.0  0.39350  0.43160  0.97700  1.0000
  C   C7        1.0  0.63550  0.64800  0.85870  1.0000
  C   C8        1.0  0.36450  0.35200  0.14130  1.0000
  H   H1        1.0  0.57060  0.65210  0.85620  1.0000
  H   H2        1.0  0.42940  0.34790  0.14380  1.0000
  H   H3        1.0  0.66210  0.61930  0.81860  1.0000
  H   H4        1.0  0.33790  0.38070  0.18140  1.0000
  C   C9        1.0  0.66220  0.74710  0.82540  1.0000
  C   C10       1.0  0.33780  0.25290  0.17460  1.0000
  H   H5        1.0  0.64690  0.78280  0.76160  1.0000
  H   H6        1.0  0.35310  0.21720  0.23840  1.0000
  H   H7        1.0  0.62860  0.77940  0.85970  1.0000
  H   H8        1.0  0.37140  0.22060  0.14030  1.0000
  C   C11       1.0  0.76200  0.74340  0.83690  1.0000
  C   C12       1.0  0.23800  0.25660  0.16310  1.0000
  H   H9        1.0  0.79300  0.71600  0.79700  1.0000
  H   H10       1.0  0.20700  0.28400  0.20300  1.0000
  C   C13       1.0  0.79150  0.67760  0.93370  1.0000
  C   C14       1.0  0.20850  0.32240  0.06630  1.0000
  H   H11       1.0  0.85650  0.67080  0.93700  1.0000
  H   H12       1.0  0.14350  0.32920  0.06300  1.0000
  H   H13       1.0  0.76590  0.70490  0.97520  1.0000
  H   H14       1.0  0.23410  0.29510  0.02480  1.0000
  C   C15       1.0  0.76110  0.58090  0.96230  1.0000
  C   C16       1.0  0.23890  0.41910  0.03770  1.0000
  H   H15       1.0  0.79270  0.55030  0.92570  1.0000
  H   H16       1.0  0.20730  0.44970  0.07430  1.0000
  H   H17       1.0  0.77630  0.54180  0.02570  1.0000
  H   H18       1.0  0.22370  0.45820  0.97430  1.0000
  C   C17       1.0  0.54510  0.38740  0.33330  1.0000
  C   C18       1.0  0.45490  0.61260  0.66670  1.0000
  H   H19       1.0  0.48590  0.42390  0.31910  1.0000
  H   H20       1.0  0.51410  0.57610  0.68090  1.0000
  H   H21       1.0  0.56430  0.38570  0.39000  1.0000
  H   H22       1.0  0.43570  0.61430  0.61000  1.0000
  C   C19       1.0  0.53980  0.28740  0.34460  1.0000
  C   C20       1.0  0.46020  0.71260  0.65540  1.0000
  H   H23       1.0  0.51380  0.28960  0.29050  1.0000
  H   H24       1.0  0.48620  0.71040  0.70950  1.0000
  H   H25       1.0  0.50090  0.25680  0.39630  1.0000
  H   H26       1.0  0.49910  0.74320  0.60370  1.0000
  C   C21       1.0  0.63260  0.23030  0.35980  1.0000
  C   C22       1.0  0.36740  0.76970  0.64020  1.0000
  H   H27       1.0  0.65500  0.22300  0.41800  1.0000
  H   H28       1.0  0.34500  0.77700  0.58200  1.0000
  C   C23       1.0  0.69830  0.28180  0.28500  1.0000
  C   C24       1.0  0.30170  0.71820  0.71500  1.0000
  H   H29       1.0  0.75840  0.24800  0.30000  1.0000
  H   H30       1.0  0.24160  0.75200  0.70000  1.0000
  H   H31       1.0  0.68170  0.28260  0.22770  1.0000
  H   H32       1.0  0.31830  0.71740  0.77230  1.0000
  C   C25       1.0  0.69830  0.38270  0.27380  1.0000
  C   C26       1.0  0.30170  0.61730  0.72620  1.0000
  H   H33       1.0  0.72310  0.38180  0.32800  1.0000
  H   H34       1.0  0.27690  0.61820  0.67200  1.0000
  H   H35       1.0  0.73630  0.41530  0.22210  1.0000
  H   H36       1.0  0.26370  0.58470  0.77790  1.0000
  C   C27       1.0  0.31270  0.60210  0.13710  1.0000
  C   C28       1.0  0.68730  0.39790  0.86290  1.0000
  H   H37       1.0  0.34250  0.56540  0.19510  1.0000
  H   H38       1.0  0.65750  0.43460  0.80490  1.0000
  H   H39       1.0  0.26670  0.56710  0.13220  1.0000
  H   H40       1.0  0.73330  0.43290  0.86780  1.0000
  C   C29       1.0  0.26940  0.69650  0.13380  1.0000
  C   C30       1.0  0.73060  0.30350  0.86620  1.0000
  H   H41       1.0  0.31420  0.72720  0.14760  1.0000
  H   H42       1.0  0.68580  0.27280  0.85240  1.0000
  H   H43       1.0  0.22230  0.68620  0.18000  1.0000
  H   H44       1.0  0.77770  0.31380  0.82000  1.0000
  C   C31       1.0  0.22940  0.76130  0.04060  1.0000
  C   C32       1.0  0.77060  0.23870  0.95940  1.0000
  H   H45       1.0  0.18000  0.73200  0.03200  1.0000
  H   H46       1.0  0.82000  0.26800  0.96800  1.0000
  C   C33       1.0  0.29810  0.76880  0.96570  1.0000
  C   C34       1.0  0.70190  0.23120  0.03430  1.0000
  H   H47       1.0  0.34450  0.80430  0.96860  1.0000
  H   H48       1.0  0.65550  0.19570  0.03140  1.0000
  H   H49       1.0  0.26900  0.80330  0.90700  1.0000
  H   H50       1.0  0.73100  0.19670  0.09300  1.0000
  C   C35       1.0  0.34110  0.67300  0.97280  1.0000
  C   C36       1.0  0.65890  0.32700  0.02720  1.0000
  H   H51       1.0  0.29660  0.64090  0.96050  1.0000
  H   H52       1.0  0.70340  0.35910  0.03950  1.0000
  H   H53       1.0  0.38890  0.68110  0.92740  1.0000
  H   H54       1.0  0.61110  0.31890  0.07260  1.0000
  C   C37       1.0  0.18890  0.85680  0.03750  1.0000
  C   C38       1.0  0.81110  0.14320  0.96250  1.0000
  C   C39       1.0  0.77950  0.23090  0.64270  1.0000
  C   C40       1.0  0.22050  0.76910  0.35730  1.0000
  H   H55       1.0  0.74400  0.26400  0.67600  1.0000
  H   H56       1.0  0.25600  0.73600  0.32400  1.0000
  C   C41       1.0  0.87770  0.22800  0.66080  1.0000
  C   C42       1.0  0.12230  0.77200  0.33920  1.0000
  H   H57       1.0  0.88760  0.19810  0.72610  1.0000
  H   H58       1.0  0.11240  0.80190  0.27390  1.0000
  H   H59       1.0  0.91460  0.18990  0.63390  1.0000
  H   H60       1.0  0.08540  0.81010  0.36610  1.0000
  C   C43       1.0  0.90660  0.32590  0.62170  1.0000
  C   C44       1.0  0.09340  0.67410  0.37830  1.0000
  H   H61       1.0  0.87750  0.36050  0.65580  1.0000
  H   H62       1.0  0.12250  0.63950  0.34420  1.0000
  H   H63       1.0  0.97120  0.32060  0.62820  1.0000
  H   H64       1.0  0.02880  0.67940  0.37180  1.0000
  C   C45       1.0  0.78850  0.38680  0.50840  1.0000
  C   C46       1.0  0.21150  0.61320  0.49160  1.0000
  H   H65       1.0  0.77780  0.42120  0.44350  1.0000
  H   H66       1.0  0.22220  0.57880  0.55650  1.0000
  H   H67       1.0  0.75390  0.42200  0.53940  1.0000
  H   H68       1.0  0.24610  0.57800  0.46060  1.0000
  C   C47       1.0  0.75890  0.28990  0.54200  1.0000
  C   C48       1.0  0.24110  0.71010  0.45800  1.0000
  H   H69       1.0  0.78940  0.25740  0.50650  1.0000
  H   H70       1.0  0.21060  0.74260  0.49350  1.0000
  H   H71       1.0  0.69460  0.29650  0.53280  1.0000
  H   H72       1.0  0.30540  0.70350  0.46720  1.0000
  C   C49       1.0  0.74610  0.13530  0.67550  1.0000
  C   C50       1.0  0.25390  0.86470  0.32450  1.0000
  C   C51       1.0  0.94450  0.41580  0.46010  1.0000
  C   C52       1.0  0.05550  0.58420  0.53990  1.0000
  C   C53       1.0  0.08880  0.43550  0.41760  1.0000
  C   C54       1.0  0.91120  0.56450  0.58240  1.0000
  C   C55       1.0  0.98020  0.50100  0.31380  1.0000
  C   C56       1.0  0.01980  0.49900  0.68620  1.0000
  C   C57       1.0  0.86030  0.58900  0.20130  1.0000
  C   C58       1.0  0.13970  0.41100  0.79870  1.0000
  H   H73       1.0  0.82240  0.54860  0.24840  1.0000
  H   H74       1.0  0.17760  0.45140  0.75160  1.0000
  H   H75       1.0  0.84880  0.58560  0.14460  1.0000
  H   H76       1.0  0.15120  0.41440  0.85540  1.0000
  C   C59       1.0  0.83590  0.68910  0.19060  1.0000
  C   C60       1.0  0.16410  0.31090  0.80940  1.0000
  H   H77       1.0  0.83940  0.69110  0.24940  1.0000
  H   H78       1.0  0.16060  0.30890  0.75060  1.0000
  H   H79       1.0  0.77430  0.71090  0.16980  1.0000
  H   H80       1.0  0.22570  0.28910  0.83020  1.0000
  C   C61       1.0  0.01450  0.61220  0.15770  1.0000
  C   C62       1.0  0.98550  0.38780  0.84230  1.0000
  H   H81       1.0  0.00730  0.60910  0.10000  1.0000
  H   H82       1.0  0.99270  0.39090  0.90000  1.0000
  H   H83       1.0  0.07620  0.58740  0.17710  1.0000
  H   H84       1.0  0.92380  0.41260  0.82290  1.0000
  C   C63       1.0  0.99600  0.71440  0.14520  1.0000
  C   C64       1.0  0.00400  0.28560  0.85480  1.0000
  H   H85       1.0  0.03410  0.75220  0.09620  1.0000
  H   H86       1.0  0.96590  0.24780  0.90380  1.0000
  H   H87       1.0  0.01140  0.71820  0.20070  1.0000
  H   H88       1.0  0.98860  0.28180  0.79930  1.0000
  C   C65       1.0  0.89790  0.75500  0.12290  1.0000
  C   C66       1.0  0.10210  0.24500  0.87710  1.0000
  H   H89       1.0  0.88600  0.75900  0.06200  1.0000
  H   H90       1.0  0.11400  0.24100  0.93800  1.0000
  C   C67       1.0  0.88370  0.85350  0.11770  1.0000
  C   C68       1.0  0.11630  0.14650  0.88230  1.0000
  C   C69       1.0  0.25040  0.42470  0.37460  1.0000
  C   C70       1.0  0.74960  0.57530  0.62540  1.0000
  H   H91       1.0  0.30020  0.45120  0.38600  1.0000
  H   H92       1.0  0.69980  0.54880  0.61400  1.0000
  H   H93       1.0  0.22890  0.46480  0.31340  1.0000
  H   H94       1.0  0.77110  0.53520  0.68660  1.0000
  C   C71       1.0  0.20570  0.36370  0.53450  1.0000
  C   C72       1.0  0.79430  0.63630  0.46550  1.0000
  H   H95       1.0  0.15620  0.36500  0.57600  1.0000
  H   H96       1.0  0.84380  0.63500  0.42400  1.0000
  H   H97       1.0  0.25490  0.38920  0.54820  1.0000
  H   H98       1.0  0.74510  0.61080  0.45180  1.0000
  C   C73       1.0  0.23600  0.26260  0.54800  1.0000
  C   C74       1.0  0.76400  0.73740  0.45200  1.0000
  H   H99       1.0  0.18510  0.23520  0.54020  1.0000
  H   H100      1.0  0.81490  0.76480  0.45980  1.0000
  H   H101      1.0  0.25760  0.22580  0.60970  1.0000
  H   H102      1.0  0.74240  0.77420  0.39030  1.0000
  C   C75       1.0  0.31130  0.25760  0.47960  1.0000
  C   C76       1.0  0.68870  0.74240  0.52040  1.0000
  H   H103      1.0  0.36400  0.27900  0.49300  1.0000
  H   H104      1.0  0.63600  0.72100  0.50700  1.0000
  C   C77       1.0  0.33900  0.15800  0.48800  1.0000
  C   C78       1.0  0.66100  0.84200  0.51200  1.0000
  C   C79       1.0  0.28190  0.32520  0.38280  1.0000
  C   C80       1.0  0.71810  0.67480  0.61720  1.0000
  H   H105      1.0  0.33200  0.32710  0.34080  1.0000
  H   H106      1.0  0.66800  0.67290  0.65920  1.0000
  H   H107      1.0  0.23340  0.30160  0.36550  1.0000
  H   H108      1.0  0.76660  0.69840  0.63450  1.0000
  C   C81       1.0  0.62540  0.13280  0.36530  1.0000
  C   C82       1.0  0.37460  0.86720  0.63470  1.0000
  C   C83       1.0  0.07130  0.74000  0.84700  1.0000
  C   C84       1.0  0.92870  0.26000  0.15300  1.0000
  H   H109      1.0  0.10490  0.77480  0.79690  1.0000
  H   H110      1.0  0.89510  0.22520  0.20310  1.0000
  C   C85       1.0  0.02390  0.69610  0.74010  1.0000
  C   C86       1.0  0.97610  0.30390  0.25990  1.0000
  H   H111      1.0  0.01320  0.76220  0.70010  1.0000
  H   H112      1.0  0.98680  0.23780  0.29990  1.0000
  H   H113      1.0  0.96980  0.66780  0.74650  1.0000
  H   H114      1.0  0.03020  0.33220  0.25350  1.0000
  H   H115      1.0  0.07100  0.66550  0.71500  1.0000
  H   H116      1.0  0.92900  0.33450  0.28500  1.0000
  C   C87       1.0  0.03400  0.58140  0.90800  1.0000
  C   C88       1.0  0.96600  0.41860  0.09200  1.0000
  H   H117      1.0  0.06780  0.57220  0.96020  1.0000
  H   H118      1.0  0.93220  0.42780  0.03980  1.0000
  H   H119      1.0  0.05560  0.53210  0.88850  1.0000
  H   H120      1.0  0.94440  0.46790  0.11150  1.0000
  H   H121      1.0  0.97170  0.57970  0.92370  1.0000
  H   H122      1.0  0.02830  0.42030  0.07630  1.0000
  C   C89       1.0  0.45750  0.03400  0.11140  1.0000
  C   C90       1.0  0.54250  0.96600  0.88860  1.0000
  H   H123      1.0  0.43240  0.98130  0.15300  1.0000
  H   H124      1.0  0.56760  0.01870  0.84700  1.0000
  C   C91       1.0  0.43800  0.15700  0.97790  1.0000
  C   C92       1.0  0.56200  0.84300  0.02210  1.0000
  H   H125      1.0  0.47350  0.18430  0.00530  1.0000
  H   H126      1.0  0.52650  0.81570  0.99470  1.0000
  H   H127      1.0  0.38550  0.20170  0.95070  1.0000
  H   H128      1.0  0.61450  0.79830  0.04930  1.0000
  H   H129      1.0  0.47260  0.14390  0.93180  1.0000
  H   H130      1.0  0.52740  0.85610  0.06820  1.0000
  C   C93       1.0  0.32880  0.05800  0.02600  1.0000
  C   C94       1.0  0.67120  0.94200  0.97400  1.0000
  H   H131      1.0  0.32900  0.06740  0.96340  1.0000
  H   H132      1.0  0.67100  0.93260  0.03660  1.0000
  H   H133      1.0  0.28260  0.10190  0.03580  1.0000
  H   H134      1.0  0.71740  0.89810  0.96420  1.0000
  H   H135      1.0  0.31710  0.99440  0.06470  1.0000
  H   H136      1.0  0.68290  0.00560  0.93530  1.0000
  C   C95       1.0  0.79260  0.83940  0.80870  1.0000
  C   C96       1.0  0.20740  0.16060  0.19130  1.0000
  Cs  Cs1       1.0  0.55697  0.99953  0.64511  1.0000
  Cs  Cs2       1.0  0.44303  0.00047  0.35489  1.0000
  Cs  Cs3       1.0  0.96962  0.98668  0.84771  1.0000
  Cs  Cs4       1.0  0.03038  0.01332  0.15229  1.0000
  Cs  Cs5       1.0  0.71226  0.98274  0.22820  1.0000
  Cs  Cs6       1.0  0.28774  0.01726  0.77180  1.0000
  N   N1        1.0  0.03090  0.39810  0.48670  1.0000
  N   N2        1.0  0.96910  0.60190  0.51330  1.0000
  N   N3        1.0  0.06900  0.48520  0.32950  1.0000
  N   N4        1.0  0.93100  0.51480  0.67050  1.0000
  N   N5        1.0  0.91460  0.46770  0.37420  1.0000
  N   N6        1.0  0.08540  0.53230  0.62580  1.0000
  N   N7        1.0  0.49010  0.52260  0.16420  1.0000
  N   N8        1.0  0.50990  0.47740  0.83580  1.0000
  N   N9        1.0  0.64040  0.51330  0.10570  1.0000
  N   N10       1.0  0.35960  0.48670  0.89430  1.0000
  N   N11       1.0  0.51910  0.60280  0.00500  1.0000
  N   N12       1.0  0.48090  0.39720  0.99500  1.0000
  N   N13       1.0  0.88350  0.37770  0.52610  1.0000
  N   N14       1.0  0.11650  0.62230  0.47390  1.0000
  N   N15       1.0  0.95370  0.55500  0.22510  1.0000
  N   N16       1.0  0.04630  0.44500  0.77490  1.0000
  N   N17       1.0  0.17730  0.42150  0.44140  1.0000
  N   N18       1.0  0.82270  0.57850  0.55860  1.0000
  N   N19       1.0  0.66480  0.58890  0.95110  1.0000
  N   N20       1.0  0.33520  0.41110  0.04890  1.0000
  N   N21       1.0  0.37790  0.61560  0.06320  1.0000
  N   N22       1.0  0.62210  0.38440  0.93680  1.0000
  N   N23       1.0  0.60890  0.43310  0.25980  1.0000
  N   N24       1.0  0.39110  0.56690  0.74020  1.0000
  N   N25       1.0  0.04890  0.68580  0.82370  1.0000
  N   N26       1.0  0.95110  0.31420  0.17630  1.0000
  N   N27       1.0  0.40960  0.07140  0.04670  1.0000
  N   N28       1.0  0.59040  0.92860  0.95330  1.0000
  O   O1        1.0  0.74100  0.91140  0.75840  1.0000
  O   O2        1.0  0.25900  0.08860  0.24160  1.0000
  O   O3        1.0  0.17130  0.86900  0.10580  1.0000
  O   O4        1.0  0.82870  0.13100  0.89420  1.0000
  O   O5        1.0  0.17210  0.92270  0.95750  1.0000
  O   O6        1.0  0.82790  0.07730  0.04250  1.0000
  O   O7        1.0  0.63180  0.06460  0.44290  1.0000
  O   O8        1.0  0.36820  0.93540  0.55710  1.0000
  O   O9        1.0  0.61210  0.12290  0.29680  1.0000
  O   O10       1.0  0.38790  0.87710  0.70320  1.0000
  O   O11       1.0  0.66630  0.13170  0.66780  1.0000
  O   O12       1.0  0.33370  0.86830  0.33220  1.0000
  O   O13       1.0  0.80380  0.06310  0.70930  1.0000
  O   O14       1.0  0.19620  0.93690  0.29070  1.0000
  O   O15       1.0  0.86450  0.84600  0.83030  1.0000
  O   O16       1.0  0.13550  0.15400  0.16970  1.0000
  O   O17       1.0  0.87780  0.86550  0.18950  1.0000
  O   O18       1.0  0.12220  0.13450  0.81050  1.0000
  O   O19       1.0  0.89010  0.92160  0.04440  1.0000
  O   O20       1.0  0.10990  0.07840  0.95560  1.0000
  O   O21       1.0  0.34020  0.09200  0.56200  1.0000
  O   O22       1.0  0.65980  0.90800  0.43800  1.0000
  O   O23       1.0  0.35660  0.14510  0.42000  1.0000
  O   O24       1.0  0.64340  0.85490  0.58000  1.0000
  O   O25       1.0  0.52020  0.03770  0.14110  1.0000
  O   O26       1.0  0.47980  0.96230  0.85890  1.0000
  O   O27       1.0  0.07740  0.77340  0.88900  1.0000
  O   O28       1.0  0.92260  0.22660  0.11100  1.0000
  C   C97       1.0  0.53000  0.76670  0.32100  1.0000
  C   C98       1.0  0.47000  0.23330  0.67900  1.0000
  H   H137      1.0  0.47580  0.78560  0.34420  1.0000
  H   H138      1.0  0.52420  0.21440  0.65580  1.0000
  C   C99       1.0  0.61740  0.63300  0.29730  1.0000
  C   C100      1.0  0.38260  0.36700  0.70270  1.0000
  H   H139      1.0  0.66940  0.66150  0.29850  1.0000
  H   H140      1.0  0.33060  0.33850  0.70150  1.0000
  H   H141      1.0  0.62360  0.56840  0.34190  1.0000
  H   H142      1.0  0.37640  0.43160  0.65810  1.0000
  H   H143      1.0  0.61210  0.63470  0.23780  1.0000
  H   H144      1.0  0.38790  0.36530  0.76220  1.0000
  C   C101      1.0  0.46560  0.62700  0.34100  1.0000
  C   C102      1.0  0.53440  0.37300  0.65900  1.0000
  H   H145      1.0  0.46280  0.60300  0.29550  1.0000
  H   H146      1.0  0.53720  0.39700  0.70450  1.0000
  H   H147      1.0  0.47640  0.57500  0.39940  1.0000
  H   H148      1.0  0.52360  0.42500  0.60060  1.0000
  H   H149      1.0  0.40960  0.66440  0.34260  1.0000
  H   H150      1.0  0.59040  0.33560  0.65740  1.0000
  N   N29       1.0  0.53760  0.68460  0.31800  1.0000
  N   N30       1.0  0.46240  0.31540  0.68200  1.0000
  O   O29       1.0  0.58360  0.81930  0.29700  1.0000
  O   O30       1.0  0.41640  0.18070  0.70300  1.0000
