data_image0
_chemical_formula_structural       Pr2O2N2C4H2Pr2O2N2C2H2Sr2O2N2C2H2O2N2C2H2O2C2N2O2C2N2O2C2O2C2O2C2H2O2C2H2O2C2H2O2C2O2C2O2C2O2C2O2C2H2O2C2H2O2C2H2O2C2O2C2O2C2O2C2O2C2H2O2C2H2O2H4C2H2O2H4C2O2H4C2O2H4C2O2H4C4H2C2H2C10H2C2H2C2H2C6
_chemical_formula_sum              "Pr4 O58 N12 C84 H56 Sr2"
_cell_length_a       10.4566
_cell_length_b       11.0799
_cell_length_c       30.5156
_cell_angle_alpha    88.3306
_cell_angle_beta     87.831
_cell_angle_gamma    79.7213

_space_group_name_H-M_alt    "P 1"
_space_group_IT_number       1

loop_
  _space_group_symop_operation_xyz
  'x, y, z'

loop_
  _atom_site_type_symbol
  _atom_site_label
  _atom_site_symmetry_multiplicity
  _atom_site_fract_x
  _atom_site_fract_y
  _atom_site_fract_z
  _atom_site_occupancy
  Pr  Pr1       1.0  0.44267  0.34514  0.37291  1.0000
  Pr  Pr2       1.0  0.55733  0.65486  0.62709  1.0000
  O   O1        1.0  0.53890  0.49370  0.32449  1.0000
  O   O2        1.0  0.46110  0.50630  0.67551  1.0000
  N   N1        1.0  0.68380  0.36140  0.38362  1.0000
  N   N2        1.0  0.31620  0.63860  0.61638  1.0000
  C   C1        1.0  0.74010  0.44250  0.35985  1.0000
  C   C2        1.0  0.25990  0.55750  0.64015  1.0000
  C   C3        1.0  0.13140  0.89210  0.02261  1.0000
  C   C4        1.0  0.86860  0.10790  0.97739  1.0000
  H   H1        1.0  0.14370  0.81830  0.00790  1.0000
  H   H2        1.0  0.85630  0.18170  0.99210  1.0000
  Pr  Pr3       1.0  0.87102  0.04476  0.14854  1.0000
  Pr  Pr4       1.0  0.12898  0.95524  0.85146  1.0000
  O   O3        1.0  0.70380  0.58400  0.30013  1.0000
  O   O4        1.0  0.29620  0.41600  0.69987  1.0000
  N   N3        1.0  0.29390  0.33970  0.44263  1.0000
  N   N4        1.0  0.70610  0.66030  0.55737  1.0000
  C   C5        1.0  0.86560  0.45620  0.36545  1.0000
  C   C6        1.0  0.13440  0.54380  0.63455  1.0000
  H   H3        1.0  0.90110  0.51490  0.34900  1.0000
  H   H4        1.0  0.09890  0.48510  0.65100  1.0000
  Sr  Sr1       1.0  0.72827  0.57189  0.21474  1.0000
  Sr  Sr2       1.0  0.27173  0.42811  0.78526  1.0000
  O   O5        1.0  0.56840  0.19850  0.42679  1.0000
  O   O6        1.0  0.43160  0.80150  0.57321  1.0000
  N   N5        1.0  0.36250  0.33030  0.29398  1.0000
  N   N6        1.0  0.63750  0.66970  0.70602  1.0000
  C   C7        1.0  0.93960  0.38200  0.39584  1.0000
  C   C8        1.0  0.06040  0.61800  0.60416  1.0000
  H   H5        1.0  0.02530  0.38970  0.40020  1.0000
  H   H6        1.0  0.97470  0.61030  0.59980  1.0000
  O   O7        1.0  0.74680  0.12230  0.46265  1.0000
  O   O8        1.0  0.25320  0.87770  0.53735  1.0000
  N   N7        1.0  0.62840  0.02820  0.14668  1.0000
  N   N8        1.0  0.37160  0.97180  0.85332  1.0000
  C   C9        1.0  0.88310  0.29670  0.41934  1.0000
  C   C10       1.0  0.11690  0.70330  0.58066  1.0000
  H   H7        1.0  0.93090  0.24460  0.43960  1.0000
  H   H8        1.0  0.06910  0.75540  0.56040  1.0000
  O   O9        1.0  0.42950  0.51540  0.42461  1.0000
  O   O10       1.0  0.57050  0.48460  0.57539  1.0000
  C   C11       1.0  0.75560  0.28840  0.41287  1.0000
  C   C12       1.0  0.24440  0.71160  0.58713  1.0000
  N   N9        1.0  0.02940  0.01540  0.08053  1.0000
  N   N10       1.0  0.97060  0.98460  0.91947  1.0000
  O   O11       1.0  0.35660  0.61250  0.48597  1.0000
  O   O12       1.0  0.64340  0.38750  0.51403  1.0000
  C   C13       1.0  0.65440  0.51300  0.32525  1.0000
  C   C14       1.0  0.34560  0.48700  0.67475  1.0000
  N   N11       1.0  0.96700  0.08770  0.22155  1.0000
  N   N12       1.0  0.03300  0.91230  0.77845  1.0000
  O   O13       1.0  0.31430  0.17320  0.38163  1.0000
  O   O14       1.0  0.68570  0.82680  0.61837  1.0000
  C   C15       1.0  0.68560  0.19560  0.43675  1.0000
  C   C16       1.0  0.31440  0.80440  0.56325  1.0000
  O   O15       1.0  0.17890  0.07080  0.41828  1.0000
  O   O16       1.0  0.82110  0.92920  0.58172  1.0000
  C   C17       1.0  0.28740  0.42640  0.47217  1.0000
  C   C18       1.0  0.71260  0.57360  0.52783  1.0000
  O   O17       1.0  0.56830  0.18580  0.32593  1.0000
  O   O18       1.0  0.43170  0.81420  0.67407  1.0000
  C   C19       1.0  0.21510  0.42450  0.51110  1.0000
  C   C20       1.0  0.78490  0.57550  0.48890  1.0000
  H   H9        1.0  0.21090  0.48680  0.53120  1.0000
  H   H10       1.0  0.78910  0.51320  0.46880  1.0000
  O   O19       1.0  0.61500  0.09070  0.26266  1.0000
  O   O20       1.0  0.38500  0.90930  0.73734  1.0000
  C   C21       1.0  0.14980  0.32890  0.51936  1.0000
  C   C22       1.0  0.85020  0.67110  0.48064  1.0000
  H   H11       1.0  0.10020  0.32600  0.54520  1.0000
  H   H12       1.0  0.89980  0.67400  0.45480  1.0000
  O   O21       1.0  0.23550  0.48250  0.35098  1.0000
  O   O22       1.0  0.76450  0.51750  0.64902  1.0000
  C   C23       1.0  0.15790  0.23700  0.48925  1.0000
  C   C24       1.0  0.84210  0.76300  0.51075  1.0000
  H   H13       1.0  0.11610  0.17040  0.49470  1.0000
  H   H14       1.0  0.88390  0.82960  0.50530  1.0000
  O   O23       1.0  0.09110  0.56780  0.30238  1.0000
  O   O24       1.0  0.90890  0.43220  0.69762  1.0000
  C   C25       1.0  0.23000  0.24690  0.45075  1.0000
  C   C26       1.0  0.77000  0.75310  0.54925  1.0000
  O   O25       1.0  0.79020  0.90060  0.20174  1.0000
  O   O26       1.0  0.20980  0.09940  0.79826  1.0000
  C   C27       1.0  0.36390  0.52660  0.46024  1.0000
  C   C28       1.0  0.63610  0.47340  0.53976  1.0000
  O   O27       1.0  0.63810  0.80160  0.23055  1.0000
  O   O28       1.0  0.36190  0.19840  0.76945  1.0000
  C   C29       1.0  0.24050  0.15500  0.41448  1.0000
  C   C30       1.0  0.75950  0.84500  0.58552  1.0000
  O   O29       1.0  0.73900  0.16530  0.09067  1.0000
  O   O30       1.0  0.26100  0.83470  0.90933  1.0000
  C   C31       1.0  0.43510  0.25240  0.26597  1.0000
  C   C32       1.0  0.56490  0.74760  0.73403  1.0000
  O   O31       1.0  0.55140  0.24960  0.06239  1.0000
  O   O32       1.0  0.44860  0.75040  0.93761  1.0000
  C   C33       1.0  0.40400  0.24770  0.22291  1.0000
  C   C34       1.0  0.59600  0.75230  0.77709  1.0000
  H   H15       1.0  0.45670  0.19490  0.20380  1.0000
  H   H16       1.0  0.54330  0.80510  0.79620  1.0000
  O   O33       1.0  0.87520  0.85750  0.10289  1.0000
  O   O34       1.0  0.12480  0.14250  0.89711  1.0000
  C   C35       1.0  0.29370  0.32240  0.20842  1.0000
  C   C36       1.0  0.70630  0.67760  0.79158  1.0000
  H   H17       1.0  0.27040  0.31970  0.17940  1.0000
  H   H18       1.0  0.72960  0.68030  0.82060  1.0000
  O   O35       1.0  0.99220  0.71380  0.06054  1.0000
  O   O36       1.0  0.00780  0.28620  0.93946  1.0000
  C   C37       1.0  0.21780  0.40100  0.23679  1.0000
  C   C38       1.0  0.78220  0.59900  0.76321  1.0000
  H   H19       1.0  0.14200  0.45090  0.22760  1.0000
  H   H20       1.0  0.85800  0.54910  0.77240  1.0000
  O   O37       1.0  0.00040  0.21160  0.12993  1.0000
  O   O38       1.0  0.99960  0.78840  0.87007  1.0000
  C   C39       1.0  0.25700  0.40430  0.27959  1.0000
  C   C40       1.0  0.74300  0.59570  0.72041  1.0000
  O   O39       1.0  0.13210  0.29990  0.08548  1.0000
  O   O40       1.0  0.86790  0.70010  0.91452  1.0000
  C   C41       1.0  0.54940  0.17080  0.28599  1.0000
  C   C42       1.0  0.45060  0.82920  0.71401  1.0000
  O   O41       1.0  0.06640  0.90140  0.17185  1.0000
  O   O42       1.0  0.93360  0.09860  0.82815  1.0000
  C   C43       1.0  0.18780  0.49300  0.31323  1.0000
  C   C44       1.0  0.81220  0.50700  0.68677  1.0000
  O   O43       1.0  0.20730  0.82310  0.22266  1.0000
  O   O44       1.0  0.79270  0.17690  0.77734  1.0000
  C   C45       1.0  0.57840  0.95280  0.17485  1.0000
  C   C46       1.0  0.42160  0.04720  0.82515  1.0000
  O   O45       1.0  0.75950  0.22760  0.18968  1.0000
  O   O46       1.0  0.24050  0.77240  0.81032  1.0000
  C   C47       1.0  0.44790  0.94360  0.17525  1.0000
  C   C48       1.0  0.55210  0.05640  0.82475  1.0000
  H   H21       1.0  0.41480  0.88990  0.19470  1.0000
  H   H22       1.0  0.58520  0.11010  0.80530  1.0000
  O   O47       1.0  0.74320  0.35560  0.24541  1.0000
  O   O48       1.0  0.25680  0.64440  0.75459  1.0000
  C   C49       1.0  0.36830  0.01570  0.14620  1.0000
  C   C50       1.0  0.63170  0.98430  0.85380  1.0000
  H   H23       1.0  0.28050  0.01090  0.14560  1.0000
  H   H24       1.0  0.71950  0.98910  0.85440  1.0000
  O   O49       1.0  0.73620  0.68270  0.13964  1.0000
  O   O50       1.0  0.26380  0.31730  0.86036  1.0000
  H   H25       1.0  0.78990  0.73180  0.13980  1.0000
  H   H26       1.0  0.21010  0.26820  0.86020  1.0000
  H   H27       1.0  0.66630  0.68520  0.12570  1.0000
  H   H28       1.0  0.33370  0.31480  0.87430  1.0000
  C   C51       1.0  0.41980  0.09480  0.11812  1.0000
  C   C52       1.0  0.58020  0.90520  0.88188  1.0000
  H   H29       1.0  0.36680  0.14600  0.09890  1.0000
  H   H30       1.0  0.63320  0.85400  0.90110  1.0000
  O   O51       1.0  0.92680  0.43720  0.17326  1.0000
  O   O52       1.0  0.07320  0.56280  0.82674  1.0000
  H   H31       1.0  0.98760  0.48770  0.17310  1.0000
  H   H32       1.0  0.01240  0.51230  0.82690  1.0000
  H   H33       1.0  0.95770  0.36600  0.15760  1.0000
  H   H34       1.0  0.04230  0.63400  0.84240  1.0000
  C   C53       1.0  0.55020  0.09760  0.11863  1.0000
  C   C54       1.0  0.44980  0.90240  0.88137  1.0000
  O   O53       1.0  0.61990  0.44660  0.15845  1.0000
  O   O54       1.0  0.38010  0.55340  0.84155  1.0000
  H   H35       1.0  0.57910  0.49440  0.13910  1.0000
  H   H36       1.0  0.42090  0.50560  0.86090  1.0000
  H   H37       1.0  0.65240  0.38010  0.14550  1.0000
  H   H38       1.0  0.34760  0.61990  0.85450  1.0000
  C   C55       1.0  0.67580  0.87980  0.20504  1.0000
  C   C56       1.0  0.32420  0.12020  0.79496  1.0000
  O   O55       1.0  0.48410  0.58970  0.23954  1.0000
  O   O56       1.0  0.51590  0.41030  0.76046  1.0000
  H   H39       1.0  0.42990  0.60330  0.21890  1.0000
  H   H40       1.0  0.57010  0.39670  0.78110  1.0000
  H   H41       1.0  0.45700  0.52390  0.24680  1.0000
  H   H42       1.0  0.54300  0.47610  0.75320  1.0000
  C   C57       1.0  0.61790  0.17780  0.08802  1.0000
  C   C58       1.0  0.38210  0.82220  0.91198  1.0000
  O   O57       1.0  0.94120  0.65690  0.22628  1.0000
  O   O58       1.0  0.05880  0.34310  0.77372  1.0000
  H   H43       1.0  0.99650  0.64660  0.24660  1.0000
  H   H44       1.0  0.00350  0.35340  0.75340  1.0000
  H   H45       1.0  0.94750  0.71880  0.20980  1.0000
  H   H46       1.0  0.05250  0.28120  0.79020  1.0000
  C   C59       1.0  0.04580  0.91110  0.05840  1.0000
  C   C60       1.0  0.95420  0.08890  0.94160  1.0000
  C   C61       1.0  0.19840  0.98360  0.00896  1.0000
  C   C62       1.0  0.80160  0.01640  0.99104  1.0000
  H   H47       1.0  0.25430  0.97330  0.98440  1.0000
  H   H48       1.0  0.74570  0.02670  0.01560  1.0000
  C   C63       1.0  0.18190  0.08920  0.03181  1.0000
  C   C64       1.0  0.81810  0.91080  0.96819  1.0000
  H   H49       1.0  0.22710  0.15150  0.02320  1.0000
  H   H50       1.0  0.77290  0.84850  0.97680  1.0000
  C   C65       1.0  0.09710  0.10280  0.06798  1.0000
  C   C66       1.0  0.90290  0.89720  0.93202  1.0000
  C   C67       1.0  0.96490  0.81910  0.07528  1.0000
  C   C68       1.0  0.03510  0.18090  0.92472  1.0000
  C   C69       1.0  0.07500  0.21520  0.09633  1.0000
  C   C70       1.0  0.92500  0.78480  0.90367  1.0000
  C   C71       1.0  0.07180  0.01340  0.23590  1.0000
  C   C72       1.0  0.92820  0.98660  0.76410  1.0000
  C   C73       1.0  0.13150  0.03830  0.27299  1.0000
  C   C74       1.0  0.86850  0.96170  0.72701  1.0000
  H   H51       1.0  0.20360  0.98430  0.28300  1.0000
  H   H52       1.0  0.79640  0.01570  0.71700  1.0000
  C   C75       1.0  0.08440  0.14300  0.29513  1.0000
  C   C76       1.0  0.91560  0.85700  0.70487  1.0000
  H   H53       1.0  0.12640  0.16310  0.31950  1.0000
  H   H54       1.0  0.87360  0.83690  0.68050  1.0000
  C   C77       1.0  0.97360  0.21860  0.28094  1.0000
  C   C78       1.0  0.02640  0.78140  0.71906  1.0000
  H   H55       1.0  0.93800  0.28900  0.29610  1.0000
  H   H56       1.0  0.06200  0.71100  0.70390  1.0000
  C   C79       1.0  0.91710  0.18760  0.24407  1.0000
  C   C80       1.0  0.08290  0.81240  0.75593  1.0000
  C   C81       1.0  0.11980  0.90290  0.20813  1.0000
  C   C82       1.0  0.88020  0.09710  0.79187  1.0000
  C   C83       1.0  0.79650  0.26390  0.22538  1.0000
  C   C84       1.0  0.20350  0.73610  0.77462  1.0000
