data_image0
_chemical_formula_structural       In8O64C48H8C16H8C8H8C24H8C8H8C8H8C16H24N8
_chemical_formula_sum              "In8 O64 C128 H72 N8"
_cell_length_a       23.8787
_cell_length_b       13.386
_cell_length_c       13.6975
_cell_angle_alpha    90
_cell_angle_beta     101.697
_cell_angle_gamma    90

_space_group_name_H-M_alt    "P 1"
_space_group_IT_number       1

loop_
  _space_group_symop_operation_xyz
  'x, y, z'

loop_
  _atom_site_type_symbol
  _atom_site_label
  _atom_site_symmetry_multiplicity
  _atom_site_fract_x
  _atom_site_fract_y
  _atom_site_fract_z
  _atom_site_occupancy
  In  In1       1.0  0.38294  0.77740  0.99119  1.0000
  In  In2       1.0  0.61706  0.77740  0.50881  1.0000
  In  In3       1.0  0.88294  0.27740  0.99119  1.0000
  In  In4       1.0  0.11706  0.27740  0.50881  1.0000
  In  In5       1.0  0.61706  0.22260  0.00881  1.0000
  In  In6       1.0  0.38294  0.22260  0.49119  1.0000
  In  In7       1.0  0.11706  0.72260  0.00881  1.0000
  In  In8       1.0  0.88294  0.72260  0.49119  1.0000
  O   O1        1.0  0.11359  0.35580  0.64560  1.0000
  O   O2        1.0  0.88641  0.35580  0.85440  1.0000
  O   O3        1.0  0.61359  0.85580  0.64560  1.0000
  O   O4        1.0  0.38641  0.85580  0.85440  1.0000
  O   O5        1.0  0.88641  0.64420  0.35440  1.0000
  O   O6        1.0  0.11359  0.64420  0.14560  1.0000
  O   O7        1.0  0.38641  0.14420  0.35440  1.0000
  O   O8        1.0  0.61359  0.14420  0.14560  1.0000
  O   O9        1.0  0.35486  0.73560  0.12180  1.0000
  O   O10       1.0  0.64514  0.73560  0.37820  1.0000
  O   O11       1.0  0.85486  0.23560  0.12180  1.0000
  O   O12       1.0  0.14514  0.23560  0.37820  1.0000
  O   O13       1.0  0.64514  0.26440  0.87820  1.0000
  O   O14       1.0  0.35486  0.26440  0.62180  1.0000
  O   O15       1.0  0.14514  0.76440  0.87820  1.0000
  O   O16       1.0  0.85486  0.76440  0.62180  1.0000
  O   O17       1.0  0.14589  0.48450  0.74360  1.0000
  O   O18       1.0  0.85411  0.48450  0.75640  1.0000
  O   O19       1.0  0.64589  0.98450  0.74360  1.0000
  O   O20       1.0  0.35411  0.98450  0.75640  1.0000
  O   O21       1.0  0.85411  0.51550  0.25640  1.0000
  O   O22       1.0  0.14589  0.51550  0.24360  1.0000
  O   O23       1.0  0.35411  0.01550  0.25640  1.0000
  O   O24       1.0  0.64589  0.01550  0.24360  1.0000
  O   O25       1.0  0.38855  0.36120  0.40510  1.0000
  O   O26       1.0  0.61145  0.36120  0.09490  1.0000
  O   O27       1.0  0.88855  0.86120  0.40510  1.0000
  O   O28       1.0  0.11145  0.86120  0.09490  1.0000
  O   O29       1.0  0.61145  0.63880  0.59490  1.0000
  O   O30       1.0  0.38855  0.63880  0.90510  1.0000
  O   O31       1.0  0.11145  0.13880  0.59490  1.0000
  O   O32       1.0  0.88855  0.13880  0.90510  1.0000
  O   O33       1.0  0.30215  0.32010  0.41180  1.0000
  O   O34       1.0  0.69785  0.32010  0.08820  1.0000
  O   O35       1.0  0.80215  0.82010  0.41180  1.0000
  O   O36       1.0  0.19785  0.82010  0.08820  1.0000
  O   O37       1.0  0.69785  0.67990  0.58820  1.0000
  O   O38       1.0  0.30215  0.67990  0.91180  1.0000
  O   O39       1.0  0.19785  0.17990  0.58820  1.0000
  O   O40       1.0  0.80215  0.17990  0.91180  1.0000
  O   O41       1.0  0.47677  0.75560  0.02690  1.0000
  O   O42       1.0  0.52323  0.75560  0.47310  1.0000
  O   O43       1.0  0.97677  0.25560  0.02690  1.0000
  O   O44       1.0  0.02323  0.25560  0.47310  1.0000
  O   O45       1.0  0.52323  0.24440  0.97310  1.0000
  O   O46       1.0  0.47677  0.24440  0.52690  1.0000
  O   O47       1.0  0.02323  0.74440  0.97310  1.0000
  O   O48       1.0  0.97677  0.74440  0.52690  1.0000
  O   O49       1.0  0.44746  0.88860  0.08380  1.0000
  O   O50       1.0  0.55254  0.88860  0.41620  1.0000
  O   O51       1.0  0.94746  0.38860  0.08380  1.0000
  O   O52       1.0  0.05254  0.38860  0.41620  1.0000
  O   O53       1.0  0.55254  0.11140  0.91620  1.0000
  O   O54       1.0  0.44746  0.11140  0.58380  1.0000
  O   O55       1.0  0.05254  0.61140  0.91620  1.0000
  O   O56       1.0  0.94746  0.61140  0.58380  1.0000
  O   O57       1.0  0.40050  0.59530  0.12690  1.0000
  O   O58       1.0  0.59950  0.59530  0.37310  1.0000
  O   O59       1.0  0.90050  0.09530  0.12690  1.0000
  O   O60       1.0  0.09950  0.09530  0.37310  1.0000
  O   O61       1.0  0.59950  0.40470  0.87310  1.0000
  O   O62       1.0  0.40050  0.40470  0.62690  1.0000
  O   O63       1.0  0.09950  0.90470  0.87310  1.0000
  O   O64       1.0  0.90050  0.90470  0.62690  1.0000
  C   C1        1.0  0.24530  0.51240  0.45650  1.0000
  C   C2        1.0  0.75470  0.51240  0.04350  1.0000
  C   C3        1.0  0.74530  0.01240  0.45650  1.0000
  C   C4        1.0  0.25470  0.01240  0.04350  1.0000
  C   C5        1.0  0.75470  0.48760  0.54350  1.0000
  C   C6        1.0  0.24530  0.48760  0.95650  1.0000
  C   C7        1.0  0.25470  0.98760  0.54350  1.0000
  C   C8        1.0  0.74530  0.98760  0.95650  1.0000
  C   C9        1.0  0.27687  0.54200  0.37800  1.0000
  C   C10       1.0  0.72313  0.54200  0.12200  1.0000
  C   C11       1.0  0.77687  0.04200  0.37800  1.0000
  C   C12       1.0  0.22313  0.04200  0.12200  1.0000
  C   C13       1.0  0.72313  0.45800  0.62200  1.0000
  C   C14       1.0  0.27687  0.45800  0.87800  1.0000
  C   C15       1.0  0.22313  0.95800  0.62200  1.0000
  C   C16       1.0  0.77687  0.95800  0.87800  1.0000
  C   C17       1.0  0.18161  0.46450  0.59590  1.0000
  C   C18       1.0  0.81839  0.46450  0.90410  1.0000
  C   C19       1.0  0.68161  0.96450  0.59590  1.0000
  C   C20       1.0  0.31839  0.96450  0.90410  1.0000
  C   C21       1.0  0.81839  0.53550  0.40410  1.0000
  C   C22       1.0  0.18161  0.53550  0.09590  1.0000
  C   C23       1.0  0.31839  0.03550  0.40410  1.0000
  C   C24       1.0  0.68161  0.03550  0.09590  1.0000
  C   C25       1.0  0.33529  0.61300  0.23320  1.0000
  C   C26       1.0  0.66471  0.61300  0.26680  1.0000
  C   C27       1.0  0.83529  0.11300  0.23320  1.0000
  C   C28       1.0  0.16471  0.11300  0.26680  1.0000
  C   C29       1.0  0.66471  0.38700  0.76680  1.0000
  C   C30       1.0  0.33529  0.38700  0.73320  1.0000
  C   C31       1.0  0.16471  0.88700  0.76680  1.0000
  C   C32       1.0  0.83529  0.88700  0.73320  1.0000
  C   C33       1.0  0.31797  0.48220  0.34630  1.0000
  C   C34       1.0  0.68203  0.48220  0.15370  1.0000
  C   C35       1.0  0.81797  0.98220  0.34630  1.0000
  C   C36       1.0  0.18203  0.98220  0.15370  1.0000
  C   C37       1.0  0.68203  0.51780  0.65370  1.0000
  C   C38       1.0  0.31797  0.51780  0.84630  1.0000
  C   C39       1.0  0.18203  0.01780  0.65370  1.0000
  C   C40       1.0  0.81797  0.01780  0.84630  1.0000
  C   C41       1.0  0.20863  0.43020  0.44650  1.0000
  C   C42       1.0  0.79137  0.43020  0.05350  1.0000
  C   C43       1.0  0.70863  0.93020  0.44650  1.0000
  C   C44       1.0  0.29137  0.93020  0.05350  1.0000
  C   C45       1.0  0.79137  0.56980  0.55350  1.0000
  C   C46       1.0  0.20863  0.56980  0.94650  1.0000
  C   C47       1.0  0.29137  0.06980  0.55350  1.0000
  C   C48       1.0  0.70863  0.06980  0.94650  1.0000
  H   H1        1.0  0.20530  0.39030  0.39000  1.0000
  H   H2        1.0  0.79470  0.39030  0.11000  1.0000
  H   H3        1.0  0.70530  0.89030  0.39000  1.0000
  H   H4        1.0  0.29470  0.89030  0.11000  1.0000
  H   H5        1.0  0.79470  0.60970  0.61000  1.0000
  H   H6        1.0  0.20530  0.60970  0.89000  1.0000
  H   H7        1.0  0.29470  0.10970  0.61000  1.0000
  H   H8        1.0  0.70530  0.10970  0.89000  1.0000
  C   C49       1.0  0.33587  0.38130  0.38870  1.0000
  C   C50       1.0  0.66413  0.38130  0.11130  1.0000
  C   C51       1.0  0.83587  0.88130  0.38870  1.0000
  C   C52       1.0  0.16413  0.88130  0.11130  1.0000
  C   C53       1.0  0.66413  0.61870  0.61130  1.0000
  C   C54       1.0  0.33587  0.61870  0.88870  1.0000
  C   C55       1.0  0.16413  0.11870  0.61130  1.0000
  C   C56       1.0  0.83587  0.11870  0.88870  1.0000
  C   C57       1.0  0.29403  0.67200  0.26400  1.0000
  C   C58       1.0  0.70597  0.67200  0.23600  1.0000
  C   C59       1.0  0.79403  0.17200  0.26400  1.0000
  C   C60       1.0  0.20597  0.17200  0.23600  1.0000
  C   C61       1.0  0.70597  0.32800  0.73600  1.0000
  C   C62       1.0  0.29403  0.32800  0.76400  1.0000
  C   C63       1.0  0.20597  0.82800  0.73600  1.0000
  C   C64       1.0  0.79403  0.82800  0.76400  1.0000
  H   H9        1.0  0.28550  0.73500  0.23640  1.0000
  H   H10       1.0  0.71450  0.73500  0.26360  1.0000
  H   H11       1.0  0.78550  0.23500  0.23640  1.0000
  H   H12       1.0  0.21450  0.23500  0.26360  1.0000
  H   H13       1.0  0.71450  0.26500  0.76360  1.0000
  H   H14       1.0  0.28550  0.26500  0.73640  1.0000
  H   H15       1.0  0.21450  0.76500  0.76360  1.0000
  H   H16       1.0  0.78550  0.76500  0.73640  1.0000
  C   C65       1.0  0.34656  0.51950  0.27480  1.0000
  C   C66       1.0  0.65344  0.51950  0.22520  1.0000
  C   C67       1.0  0.84656  0.01950  0.27480  1.0000
  C   C68       1.0  0.15344  0.01950  0.22520  1.0000
  C   C69       1.0  0.65344  0.48050  0.72520  1.0000
  C   C70       1.0  0.34656  0.48050  0.77480  1.0000
  C   C71       1.0  0.15344  0.98050  0.72520  1.0000
  C   C72       1.0  0.84656  0.98050  0.77480  1.0000
  H   H17       1.0  0.37420  0.48000  0.25460  1.0000
  H   H18       1.0  0.62580  0.48000  0.24540  1.0000
  H   H19       1.0  0.87420  0.98000  0.25460  1.0000
  H   H20       1.0  0.12580  0.98000  0.24540  1.0000
  H   H21       1.0  0.62580  0.52000  0.74540  1.0000
  H   H22       1.0  0.37420  0.52000  0.75460  1.0000
  H   H23       1.0  0.12580  0.02000  0.74540  1.0000
  H   H24       1.0  0.87420  0.02000  0.75460  1.0000
  C   C73       1.0  0.14460  0.43360  0.66820  1.0000
  C   C74       1.0  0.85540  0.43360  0.83180  1.0000
  C   C75       1.0  0.64460  0.93360  0.66820  1.0000
  C   C76       1.0  0.35540  0.93360  0.83180  1.0000
  C   C77       1.0  0.85540  0.56640  0.33180  1.0000
  C   C78       1.0  0.14460  0.56640  0.16820  1.0000
  C   C79       1.0  0.35540  0.06640  0.33180  1.0000
  C   C80       1.0  0.64460  0.06640  0.16820  1.0000
  C   C81       1.0  0.36665  0.64930  0.15530  1.0000
  C   C82       1.0  0.63335  0.64930  0.34470  1.0000
  C   C83       1.0  0.86665  0.14930  0.15530  1.0000
  C   C84       1.0  0.13335  0.14930  0.34470  1.0000
  C   C85       1.0  0.63335  0.35070  0.84470  1.0000
  C   C86       1.0  0.36665  0.35070  0.65530  1.0000
  C   C87       1.0  0.13335  0.85070  0.84470  1.0000
  C   C88       1.0  0.86665  0.85070  0.65530  1.0000
  C   C89       1.0  0.21630  0.54750  0.61160  1.0000
  C   C90       1.0  0.78370  0.54750  0.88840  1.0000
  C   C91       1.0  0.71630  0.04750  0.61160  1.0000
  C   C92       1.0  0.28370  0.04750  0.88840  1.0000
  C   C93       1.0  0.78370  0.45250  0.38840  1.0000
  C   C94       1.0  0.21630  0.45250  0.11160  1.0000
  C   C95       1.0  0.28370  0.95250  0.38840  1.0000
  C   C96       1.0  0.71630  0.95250  0.11160  1.0000
  H   H25       1.0  0.21810  0.58690  0.66810  1.0000
  H   H26       1.0  0.78190  0.58690  0.83190  1.0000
  H   H27       1.0  0.71810  0.08690  0.66810  1.0000
  H   H28       1.0  0.28190  0.08690  0.83190  1.0000
  H   H29       1.0  0.78190  0.41310  0.33190  1.0000
  H   H30       1.0  0.21810  0.41310  0.16810  1.0000
  H   H31       1.0  0.28190  0.91310  0.33190  1.0000
  H   H32       1.0  0.71810  0.91310  0.16810  1.0000
  C   C97       1.0  0.24824  0.57090  0.54180  1.0000
  C   C98       1.0  0.75176  0.57090  0.95820  1.0000
  C   C99       1.0  0.74824  0.07090  0.54180  1.0000
  C   C100      1.0  0.25176  0.07090  0.95820  1.0000
  C   C101      1.0  0.75176  0.42910  0.45820  1.0000
  C   C102      1.0  0.24824  0.42910  0.04180  1.0000
  C   C103      1.0  0.25176  0.92910  0.45820  1.0000
  C   C104      1.0  0.74824  0.92910  0.04180  1.0000
  H   H33       1.0  0.27210  0.62650  0.55160  1.0000
  H   H34       1.0  0.72790  0.62650  0.94840  1.0000
  H   H35       1.0  0.77210  0.12650  0.55160  1.0000
  H   H36       1.0  0.22790  0.12650  0.94840  1.0000
  H   H37       1.0  0.72790  0.37350  0.44840  1.0000
  H   H38       1.0  0.27210  0.37350  0.05160  1.0000
  H   H39       1.0  0.22790  0.87350  0.44840  1.0000
  H   H40       1.0  0.77210  0.87350  0.05160  1.0000
  C   C105      1.0  0.26582  0.63640  0.33590  1.0000
  C   C106      1.0  0.73418  0.63640  0.16410  1.0000
  C   C107      1.0  0.76582  0.13640  0.33590  1.0000
  C   C108      1.0  0.23418  0.13640  0.16410  1.0000
  C   C109      1.0  0.73418  0.36360  0.66410  1.0000
  C   C110      1.0  0.26582  0.36360  0.83590  1.0000
  C   C111      1.0  0.23418  0.86360  0.66410  1.0000
  C   C112      1.0  0.76582  0.86360  0.83590  1.0000
  H   H41       1.0  0.23870  0.67680  0.35670  1.0000
  H   H42       1.0  0.76130  0.67680  0.14330  1.0000
  H   H43       1.0  0.73870  0.17680  0.35670  1.0000
  H   H44       1.0  0.26130  0.17680  0.14330  1.0000
  H   H45       1.0  0.76130  0.32320  0.64330  1.0000
  H   H46       1.0  0.23870  0.32320  0.85670  1.0000
  H   H47       1.0  0.26130  0.82320  0.64330  1.0000
  H   H48       1.0  0.73870  0.82320  0.85670  1.0000
  C   C113      1.0  0.48730  0.83250  0.07620  1.0000
  C   C114      1.0  0.51270  0.83250  0.42380  1.0000
  C   C115      1.0  0.98730  0.33250  0.07620  1.0000
  C   C116      1.0  0.01270  0.33250  0.42380  1.0000
  C   C117      1.0  0.51270  0.16750  0.92380  1.0000
  C   C118      1.0  0.48730  0.16750  0.57620  1.0000
  C   C119      1.0  0.01270  0.66750  0.92380  1.0000
  C   C120      1.0  0.98730  0.66750  0.57620  1.0000
  C   C121      1.0  0.54870  0.85550  0.12820  1.0000
  C   C122      1.0  0.45130  0.85550  0.37180  1.0000
  C   C123      1.0  0.04870  0.35550  0.12820  1.0000
  C   C124      1.0  0.95130  0.35550  0.37180  1.0000
  C   C125      1.0  0.45130  0.14450  0.87180  1.0000
  C   C126      1.0  0.54870  0.14450  0.62820  1.0000
  C   C127      1.0  0.95130  0.64450  0.87180  1.0000
  C   C128      1.0  0.04870  0.64450  0.62820  1.0000
  H   H49       1.0  0.55830  0.92220  0.11200  1.0000
  H   H50       1.0  0.44170  0.92220  0.38800  1.0000
  H   H51       1.0  0.05830  0.42220  0.11200  1.0000
  H   H52       1.0  0.94170  0.42220  0.38800  1.0000
  H   H53       1.0  0.44170  0.07780  0.88800  1.0000
  H   H54       1.0  0.55830  0.07780  0.61200  1.0000
  H   H55       1.0  0.94170  0.57780  0.88800  1.0000
  H   H56       1.0  0.05830  0.57780  0.61200  1.0000
  H   H57       1.0  0.57420  0.80900  0.10620  1.0000
  H   H58       1.0  0.42580  0.80900  0.39380  1.0000
  H   H59       1.0  0.07420  0.30900  0.10620  1.0000
  H   H60       1.0  0.92580  0.30900  0.39380  1.0000
  H   H61       1.0  0.42580  0.19100  0.89380  1.0000
  H   H62       1.0  0.57420  0.19100  0.60620  1.0000
  H   H63       1.0  0.92580  0.69100  0.89380  1.0000
  H   H64       1.0  0.07420  0.69100  0.60620  1.0000
  H   H65       1.0  0.55220  0.84970  0.19900  1.0000
  H   H66       1.0  0.44780  0.84970  0.30100  1.0000
  H   H67       1.0  0.05220  0.34970  0.19900  1.0000
  H   H68       1.0  0.94780  0.34970  0.30100  1.0000
  H   H69       1.0  0.44780  0.15030  0.80100  1.0000
  H   H70       1.0  0.55220  0.15030  0.69900  1.0000
  H   H71       1.0  0.94780  0.65030  0.80100  1.0000
  H   H72       1.0  0.05220  0.65030  0.69900  1.0000
  N   N1        1.0  0.17819  0.40650  0.51480  1.0000
  N   N2        1.0  0.82181  0.40650  0.98520  1.0000
  N   N3        1.0  0.67819  0.90650  0.51480  1.0000
  N   N4        1.0  0.32181  0.90650  0.98520  1.0000
  N   N5        1.0  0.82181  0.59350  0.48520  1.0000
  N   N6        1.0  0.17819  0.59350  0.01480  1.0000
  N   N7        1.0  0.32181  0.09350  0.48520  1.0000
  N   N8        1.0  0.67819  0.09350  0.01480  1.0000
