data_image0
_chemical_formula_structural       Cu2O16C16H4C4H4C4H4C4H4C4
_chemical_formula_sum              "Cu2 O16 C32 H16"
_cell_length_a       16.42
_cell_length_b       8.2055
_cell_length_c       12.248
_cell_angle_alpha    90
_cell_angle_beta     110.921
_cell_angle_gamma    90

_space_group_name_H-M_alt    "P 1"
_space_group_IT_number       1

loop_
  _space_group_symop_operation_xyz
  'x, y, z'

loop_
  _atom_site_type_symbol
  _atom_site_label
  _atom_site_symmetry_multiplicity
  _atom_site_fract_x
  _atom_site_fract_y
  _atom_site_fract_z
  _atom_site_occupancy
  Cu  Cu1       1.0  0.50000  0.50000  0.50000  1.0000
  Cu  Cu2       1.0  0.50000  0.00000  0.00000  1.0000
  O   O1        1.0  0.40893  0.53200  0.34835  1.0000
  O   O2        1.0  0.59107  0.03200  0.15165  1.0000
  O   O3        1.0  0.59107  0.46800  0.65165  1.0000
  O   O4        1.0  0.40893  0.96800  0.84835  1.0000
  O   O5        1.0  0.46018  0.77820  0.32160  1.0000
  O   O6        1.0  0.53982  0.27820  0.17840  1.0000
  O   O7        1.0  0.53982  0.22180  0.67840  1.0000
  O   O8        1.0  0.46018  0.72180  0.82160  1.0000
  O   O9        1.0  0.40821  0.98982  0.06641  1.0000
  O   O10       1.0  0.59179  0.48982  0.43359  1.0000
  O   O11       1.0  0.59179  0.01018  0.93359  1.0000
  O   O12       1.0  0.40821  0.51018  0.56641  1.0000
  O   O13       1.0  0.42946  0.72190  0.06038  1.0000
  O   O14       1.0  0.57054  0.22190  0.43962  1.0000
  O   O15       1.0  0.57054  0.27810  0.93962  1.0000
  O   O16       1.0  0.42946  0.77810  0.56038  1.0000
  C   C1        1.0  0.40353  0.67050  0.29821  1.0000
  C   C2        1.0  0.59647  0.17050  0.20179  1.0000
  C   C3        1.0  0.59647  0.32950  0.70179  1.0000
  C   C4        1.0  0.40353  0.82950  0.79821  1.0000
  C   C5        1.0  0.31625  0.71050  0.20638  1.0000
  C   C6        1.0  0.68375  0.21050  0.29362  1.0000
  C   C7        1.0  0.68375  0.28950  0.79362  1.0000
  C   C8        1.0  0.31625  0.78950  0.70638  1.0000
  C   C9        1.0  0.31092  0.81210  0.11178  1.0000
  C   C10       1.0  0.68908  0.31210  0.38822  1.0000
  C   C11       1.0  0.68908  0.18790  0.88822  1.0000
  C   C12       1.0  0.31092  0.68790  0.61178  1.0000
  C   C13       1.0  0.23020  0.87420  0.04135  1.0000
  C   C14       1.0  0.76980  0.37420  0.45865  1.0000
  C   C15       1.0  0.76980  0.12580  0.95865  1.0000
  C   C16       1.0  0.23020  0.62580  0.54135  1.0000
  H   H1        1.0  0.22651  0.94548  0.97865  1.0000
  H   H2        1.0  0.77349  0.44548  0.52135  1.0000
  H   H3        1.0  0.77349  0.05452  0.02135  1.0000
  H   H4        1.0  0.22651  0.55452  0.47865  1.0000
  C   C17       1.0  0.15487  0.83210  0.06240  1.0000
  C   C18       1.0  0.84513  0.33210  0.43760  1.0000
  C   C19       1.0  0.84513  0.16790  0.93760  1.0000
  C   C20       1.0  0.15487  0.66790  0.56240  1.0000
  H   H5        1.0  0.10034  0.87756  0.01574  1.0000
  H   H6        1.0  0.89966  0.37756  0.48426  1.0000
  H   H7        1.0  0.89966  0.12244  0.98426  1.0000
  H   H8        1.0  0.10034  0.62244  0.51574  1.0000
  C   C21       1.0  0.15942  0.72410  0.15120  1.0000
  C   C22       1.0  0.84058  0.22410  0.34880  1.0000
  C   C23       1.0  0.84058  0.27590  0.84880  1.0000
  C   C24       1.0  0.15942  0.77590  0.65120  1.0000
  H   H9        1.0  0.10765  0.69085  0.16273  1.0000
  H   H10       1.0  0.89235  0.19085  0.33727  1.0000
  H   H11       1.0  0.89235  0.30915  0.83727  1.0000
  H   H12       1.0  0.10765  0.80915  0.66273  1.0000
  C   C25       1.0  0.24008  0.66410  0.22380  1.0000
  C   C26       1.0  0.75992  0.16410  0.27620  1.0000
  C   C27       1.0  0.75992  0.33590  0.77620  1.0000
  C   C28       1.0  0.24008  0.83590  0.72380  1.0000
  H   H13       1.0  0.24315  0.59131  0.28543  1.0000
  H   H14       1.0  0.75685  0.09131  0.21457  1.0000
  H   H15       1.0  0.75685  0.40869  0.71457  1.0000
  H   H16       1.0  0.24315  0.90869  0.78543  1.0000
  C   C29       1.0  0.39003  0.84260  0.07931  1.0000
  C   C30       1.0  0.60997  0.34260  0.42069  1.0000
  C   C31       1.0  0.60997  0.15740  0.92069  1.0000
  C   C32       1.0  0.39003  0.65740  0.57931  1.0000
