data_image0
_chemical_formula_structural       W24K8O128C56H8C8H8C8H8C8H8C8H8C8H8C8H8C8H8C8H8C8H8C8H8C8H8C8H8C8H8C8H8N24
_chemical_formula_sum              "W24 K8 O128 C168 H120 N24"
_cell_length_a       37.154
_cell_length_b       10.1654
_cell_length_c       19.6631
_cell_angle_alpha    90
_cell_angle_beta     114.239
_cell_angle_gamma    90

_space_group_name_H-M_alt    "P 1"
_space_group_IT_number       1

loop_
  _space_group_symop_operation_xyz
  'x, y, z'

loop_
  _atom_site_type_symbol
  _atom_site_label
  _atom_site_symmetry_multiplicity
  _atom_site_fract_x
  _atom_site_fract_y
  _atom_site_fract_z
  _atom_site_occupancy
  W   W1        1.0  0.41176  0.99770  0.75814  1.0000
  W   W2        1.0  0.58824  0.99770  0.74186  1.0000
  W   W3        1.0  0.91176  0.49770  0.75814  1.0000
  W   W4        1.0  0.08824  0.49770  0.74186  1.0000
  W   W5        1.0  0.58824  0.00230  0.24186  1.0000
  W   W6        1.0  0.41176  0.00230  0.25814  1.0000
  W   W7        1.0  0.08824  0.50230  0.24186  1.0000
  W   W8        1.0  0.91176  0.50230  0.25814  1.0000
  W   W9        1.0  0.37022  0.19390  0.75527  1.0000
  W   W10       1.0  0.62978  0.19390  0.74473  1.0000
  W   W11       1.0  0.87022  0.69390  0.75527  1.0000
  W   W12       1.0  0.12978  0.69390  0.74473  1.0000
  W   W13       1.0  0.62978  0.80610  0.24473  1.0000
  W   W14       1.0  0.37022  0.80610  0.25527  1.0000
  W   W15       1.0  0.12978  0.30610  0.24473  1.0000
  W   W16       1.0  0.87022  0.30610  0.25527  1.0000
  W   W17       1.0  0.40567  0.18488  0.67061  1.0000
  W   W18       1.0  0.59433  0.18488  0.82939  1.0000
  W   W19       1.0  0.90567  0.68488  0.67061  1.0000
  W   W20       1.0  0.09433  0.68488  0.82939  1.0000
  W   W21       1.0  0.59433  0.81512  0.32939  1.0000
  W   W22       1.0  0.40567  0.81512  0.17061  1.0000
  W   W23       1.0  0.09433  0.31512  0.32939  1.0000
  W   W24       1.0  0.90567  0.31512  0.17061  1.0000
  K   K1        1.0  0.30749  0.86411  0.82191  1.0000
  K   K2        1.0  0.69251  0.86411  0.67809  1.0000
  K   K3        1.0  0.80749  0.36411  0.82191  1.0000
  K   K4        1.0  0.19251  0.36411  0.67809  1.0000
  K   K5        1.0  0.69251  0.13589  0.17809  1.0000
  K   K6        1.0  0.30749  0.13589  0.32191  1.0000
  K   K7        1.0  0.19251  0.63589  0.17809  1.0000
  K   K8        1.0  0.80749  0.63589  0.32191  1.0000
  O   O1        1.0  0.36154  0.06160  0.67019  1.0000
  O   O2        1.0  0.63846  0.06160  0.82981  1.0000
  O   O3        1.0  0.86154  0.56160  0.67019  1.0000
  O   O4        1.0  0.13846  0.56160  0.82981  1.0000
  O   O5        1.0  0.63846  0.93840  0.32981  1.0000
  O   O6        1.0  0.36154  0.93840  0.17019  1.0000
  O   O7        1.0  0.13846  0.43840  0.32981  1.0000
  O   O8        1.0  0.86154  0.43840  0.17019  1.0000
  O   O9        1.0  0.41075  0.10470  0.83828  1.0000
  O   O10       1.0  0.58925  0.10470  0.66172  1.0000
  O   O11       1.0  0.91075  0.60470  0.83828  1.0000
  O   O12       1.0  0.08925  0.60470  0.66172  1.0000
  O   O13       1.0  0.58925  0.89530  0.16172  1.0000
  O   O14       1.0  0.41075  0.89530  0.33828  1.0000
  O   O15       1.0  0.08925  0.39530  0.16172  1.0000
  O   O16       1.0  0.91075  0.39530  0.33828  1.0000
  O   O17       1.0  0.40351  0.32290  0.73686  1.0000
  O   O18       1.0  0.59649  0.32290  0.76314  1.0000
  O   O19       1.0  0.90351  0.82290  0.73686  1.0000
  O   O20       1.0  0.09649  0.82290  0.76314  1.0000
  O   O21       1.0  0.59649  0.67710  0.26314  1.0000
  O   O22       1.0  0.40351  0.67710  0.23686  1.0000
  O   O23       1.0  0.09649  0.17710  0.26314  1.0000
  O   O24       1.0  0.90351  0.17710  0.23686  1.0000
  O   O25       1.0  0.45208  0.09100  0.73884  1.0000
  O   O26       1.0  0.54792  0.09100  0.76116  1.0000
  O   O27       1.0  0.95208  0.59100  0.73884  1.0000
  O   O28       1.0  0.04792  0.59100  0.76116  1.0000
  O   O29       1.0  0.54792  0.90900  0.26116  1.0000
  O   O30       1.0  0.45208  0.90900  0.23884  1.0000
  O   O31       1.0  0.04792  0.40900  0.26116  1.0000
  O   O32       1.0  0.95208  0.40900  0.23884  1.0000
  O   O33       1.0  0.40935  0.83450  0.69053  1.0000
  O   O34       1.0  0.59065  0.83450  0.80947  1.0000
  O   O35       1.0  0.90935  0.33450  0.69053  1.0000
  O   O36       1.0  0.09065  0.33450  0.80947  1.0000
  O   O37       1.0  0.59065  0.16550  0.30947  1.0000
  O   O38       1.0  0.40935  0.16550  0.19053  1.0000
  O   O39       1.0  0.09065  0.66550  0.30947  1.0000
  O   O40       1.0  0.90935  0.66550  0.19053  1.0000
  O   O41       1.0  0.37394  0.86090  0.77807  1.0000
  O   O42       1.0  0.62606  0.86090  0.72193  1.0000
  O   O43       1.0  0.87394  0.36090  0.77807  1.0000
  O   O44       1.0  0.12606  0.36090  0.72193  1.0000
  O   O45       1.0  0.62606  0.13910  0.22193  1.0000
  O   O46       1.0  0.37394  0.13910  0.27807  1.0000
  O   O47       1.0  0.12606  0.63910  0.22193  1.0000
  O   O48       1.0  0.87394  0.63910  0.27807  1.0000
  O   O49       1.0  0.32967  0.70550  0.72000  1.0000
  O   O50       1.0  0.67033  0.70550  0.78000  1.0000
  O   O51       1.0  0.82967  0.20550  0.72000  1.0000
  O   O52       1.0  0.17033  0.20550  0.78000  1.0000
  O   O53       1.0  0.67033  0.29450  0.28000  1.0000
  O   O54       1.0  0.32967  0.29450  0.22000  1.0000
  O   O55       1.0  0.17033  0.79450  0.28000  1.0000
  O   O56       1.0  0.82967  0.79450  0.22000  1.0000
  O   O57       1.0  0.36992  0.66800  0.62819  1.0000
  O   O58       1.0  0.63008  0.66800  0.87181  1.0000
  O   O59       1.0  0.86992  0.16800  0.62819  1.0000
  O   O60       1.0  0.13008  0.16800  0.87181  1.0000
  O   O61       1.0  0.63008  0.33200  0.37181  1.0000
  O   O62       1.0  0.36992  0.33200  0.12819  1.0000
  O   O63       1.0  0.13008  0.83200  0.37181  1.0000
  O   O64       1.0  0.86992  0.83200  0.12819  1.0000
  O   O65       1.0  0.32284  0.10680  0.77011  1.0000
  O   O66       1.0  0.67716  0.10680  0.72989  1.0000
  O   O67       1.0  0.82284  0.60680  0.77011  1.0000
  O   O68       1.0  0.17716  0.60680  0.72989  1.0000
  O   O69       1.0  0.67716  0.89320  0.22989  1.0000
  O   O70       1.0  0.32284  0.89320  0.27011  1.0000
  O   O71       1.0  0.17716  0.39320  0.22989  1.0000
  O   O72       1.0  0.82284  0.39320  0.27011  1.0000
  O   O73       1.0  0.32068  0.30090  0.68525  1.0000
  O   O74       1.0  0.67932  0.30090  0.81475  1.0000
  O   O75       1.0  0.82068  0.80090  0.68525  1.0000
  O   O76       1.0  0.17932  0.80090  0.81475  1.0000
  O   O77       1.0  0.67932  0.69910  0.31475  1.0000
  O   O78       1.0  0.32068  0.69910  0.18525  1.0000
  O   O79       1.0  0.17932  0.19910  0.31475  1.0000
  O   O80       1.0  0.82068  0.19910  0.18525  1.0000
  O   O81       1.0  0.25723  0.34290  0.65628  1.0000
  O   O82       1.0  0.74277  0.34290  0.84372  1.0000
  O   O83       1.0  0.75723  0.84290  0.65628  1.0000
  O   O84       1.0  0.24277  0.84290  0.84372  1.0000
  O   O85       1.0  0.74277  0.65710  0.34372  1.0000
  O   O86       1.0  0.25723  0.65710  0.15628  1.0000
  O   O87       1.0  0.24277  0.15710  0.34372  1.0000
  O   O88       1.0  0.75723  0.15710  0.15628  1.0000
  O   O89       1.0  0.26028  0.13700  0.75417  1.0000
  O   O90       1.0  0.73972  0.13700  0.74583  1.0000
  O   O91       1.0  0.76028  0.63700  0.75417  1.0000
  O   O92       1.0  0.23972  0.63700  0.74583  1.0000
  O   O93       1.0  0.73972  0.86300  0.24583  1.0000
  O   O94       1.0  0.26028  0.86300  0.25417  1.0000
  O   O95       1.0  0.23972  0.36300  0.24583  1.0000
  O   O96       1.0  0.76028  0.36300  0.25417  1.0000
  O   O97       1.0  0.36271  0.27730  0.57746  1.0000
  O   O98       1.0  0.63729  0.27730  0.92254  1.0000
  O   O99       1.0  0.86271  0.77730  0.57746  1.0000
  O   O100      1.0  0.13729  0.77730  0.92254  1.0000
  O   O101      1.0  0.63729  0.72270  0.42254  1.0000
  O   O102      1.0  0.36271  0.72270  0.07746  1.0000
  O   O103      1.0  0.13729  0.22270  0.42254  1.0000
  O   O104      1.0  0.86271  0.22270  0.07746  1.0000
  O   O105      1.0  0.40540  0.07820  0.57888  1.0000
  O   O106      1.0  0.59460  0.07820  0.92112  1.0000
  O   O107      1.0  0.90540  0.57820  0.57888  1.0000
  O   O108      1.0  0.09460  0.57820  0.92112  1.0000
  O   O109      1.0  0.59460  0.92180  0.42112  1.0000
  O   O110      1.0  0.40540  0.92180  0.07888  1.0000
  O   O111      1.0  0.09460  0.42180  0.42112  1.0000
  O   O112      1.0  0.90540  0.42180  0.07888  1.0000
  O   O113      1.0  0.37241  0.04360  0.45645  1.0000
  O   O114      1.0  0.62759  0.04360  0.04355  1.0000
  O   O115      1.0  0.87241  0.54360  0.45645  1.0000
  O   O116      1.0  0.12759  0.54360  0.04355  1.0000
  O   O117      1.0  0.62759  0.95640  0.54355  1.0000
  O   O118      1.0  0.37241  0.95640  0.95645  1.0000
  O   O119      1.0  0.12759  0.45640  0.54355  1.0000
  O   O120      1.0  0.87241  0.45640  0.95645  1.0000
  O   O121      1.0  0.32630  0.26140  0.45484  1.0000
  O   O122      1.0  0.67370  0.26140  0.04516  1.0000
  O   O123      1.0  0.82630  0.76140  0.45484  1.0000
  O   O124      1.0  0.17370  0.76140  0.04516  1.0000
  O   O125      1.0  0.67370  0.73860  0.54516  1.0000
  O   O126      1.0  0.32630  0.73860  0.95484  1.0000
  O   O127      1.0  0.17370  0.23860  0.54516  1.0000
  O   O128      1.0  0.82630  0.23860  0.95484  1.0000
  C   C1        1.0  0.38025  0.75370  0.67548  1.0000
  C   C2        1.0  0.61975  0.75370  0.82452  1.0000
  C   C3        1.0  0.88025  0.25370  0.67548  1.0000
  C   C4        1.0  0.11975  0.25370  0.82452  1.0000
  C   C5        1.0  0.61975  0.24630  0.32452  1.0000
  C   C6        1.0  0.38025  0.24630  0.17548  1.0000
  C   C7        1.0  0.11975  0.74630  0.32452  1.0000
  C   C8        1.0  0.88025  0.74630  0.17548  1.0000
  C   C9        1.0  0.35838  0.77250  0.72725  1.0000
  C   C10       1.0  0.64162  0.77250  0.77275  1.0000
  C   C11       1.0  0.85838  0.27250  0.72725  1.0000
  C   C12       1.0  0.14162  0.27250  0.77275  1.0000
  C   C13       1.0  0.64162  0.22750  0.27275  1.0000
  C   C14       1.0  0.35838  0.22750  0.22725  1.0000
  C   C15       1.0  0.14162  0.72750  0.27275  1.0000
  C   C16       1.0  0.85838  0.72750  0.22725  1.0000
  C   C17       1.0  0.28879  0.16560  0.74160  1.0000
  C   C18       1.0  0.71121  0.16560  0.75840  1.0000
  C   C19       1.0  0.78879  0.66560  0.74160  1.0000
  C   C20       1.0  0.21121  0.66560  0.75840  1.0000
  C   C21       1.0  0.71121  0.83440  0.25840  1.0000
  C   C22       1.0  0.28879  0.83440  0.24160  1.0000
  C   C23       1.0  0.21121  0.33440  0.25840  1.0000
  C   C24       1.0  0.78879  0.33440  0.24160  1.0000
  C   C25       1.0  0.28739  0.28070  0.68950  1.0000
  C   C26       1.0  0.71261  0.28070  0.81050  1.0000
  C   C27       1.0  0.78739  0.78070  0.68950  1.0000
  C   C28       1.0  0.21261  0.78070  0.81050  1.0000
  C   C29       1.0  0.71261  0.71930  0.31050  1.0000
  C   C30       1.0  0.28739  0.71930  0.18950  1.0000
  C   C31       1.0  0.21261  0.21930  0.31050  1.0000
  C   C32       1.0  0.78739  0.21930  0.18950  1.0000
  C   C33       1.0  0.35250  0.22310  0.51268  1.0000
  C   C34       1.0  0.64750  0.22310  0.98732  1.0000
  C   C35       1.0  0.85250  0.72310  0.51268  1.0000
  C   C36       1.0  0.14750  0.72310  0.98732  1.0000
  C   C37       1.0  0.64750  0.77690  0.48732  1.0000
  C   C38       1.0  0.35250  0.77690  0.01268  1.0000
  C   C39       1.0  0.14750  0.27690  0.48732  1.0000
  C   C40       1.0  0.85250  0.27690  0.01268  1.0000
  C   C41       1.0  0.37815  0.10190  0.51367  1.0000
  C   C42       1.0  0.62185  0.10190  0.98633  1.0000
  C   C43       1.0  0.87815  0.60190  0.51367  1.0000
  C   C44       1.0  0.12185  0.60190  0.98633  1.0000
  C   C45       1.0  0.62185  0.89810  0.48633  1.0000
  C   C46       1.0  0.37815  0.89810  0.01367  1.0000
  C   C47       1.0  0.12185  0.39810  0.48633  1.0000
  C   C48       1.0  0.87815  0.39810  0.01367  1.0000
  C   C49       1.0  0.49878  0.90410  0.85880  1.0000
  C   C50       1.0  0.50122  0.90410  0.64120  1.0000
  C   C51       1.0  0.99878  0.40410  0.85880  1.0000
  C   C52       1.0  0.00122  0.40410  0.64120  1.0000
  C   C53       1.0  0.50122  0.09590  0.14120  1.0000
  C   C54       1.0  0.49878  0.09590  0.35880  1.0000
  C   C55       1.0  0.00122  0.59590  0.14120  1.0000
  C   C56       1.0  0.99878  0.59590  0.35880  1.0000
  H   H1        1.0  0.50360  0.92970  0.81790  1.0000
  H   H2        1.0  0.49640  0.92970  0.68210  1.0000
  H   H3        1.0  0.00360  0.42970  0.81790  1.0000
  H   H4        1.0  0.99640  0.42970  0.68210  1.0000
  H   H5        1.0  0.49640  0.07030  0.18210  1.0000
  H   H6        1.0  0.50360  0.07030  0.31790  1.0000
  H   H7        1.0  0.99640  0.57030  0.18210  1.0000
  H   H8        1.0  0.00360  0.57030  0.31790  1.0000
  C   C57       1.0  0.53028  0.86630  0.92300  1.0000
  C   C58       1.0  0.46972  0.86630  0.57700  1.0000
  C   C59       1.0  0.03028  0.36630  0.92300  1.0000
  C   C60       1.0  0.96972  0.36630  0.57700  1.0000
  C   C61       1.0  0.46972  0.13370  0.07700  1.0000
  C   C62       1.0  0.53028  0.13370  0.42300  1.0000
  C   C63       1.0  0.96972  0.63370  0.07700  1.0000
  C   C64       1.0  0.03028  0.63370  0.42300  1.0000
  H   H9        1.0  0.55580  0.86750  0.92550  1.0000
  H   H10       1.0  0.44420  0.86750  0.57450  1.0000
  H   H11       1.0  0.05580  0.36750  0.92550  1.0000
  H   H12       1.0  0.94420  0.36750  0.57450  1.0000
  H   H13       1.0  0.44420  0.13250  0.07450  1.0000
  H   H14       1.0  0.55580  0.13250  0.42550  1.0000
  H   H15       1.0  0.94420  0.63250  0.07450  1.0000
  H   H16       1.0  0.05580  0.63250  0.42550  1.0000
  C   C65       1.0  0.52323  0.82670  0.98380  1.0000
  C   C66       1.0  0.47677  0.82670  0.51620  1.0000
  C   C67       1.0  0.02323  0.32670  0.98380  1.0000
  C   C68       1.0  0.97677  0.32670  0.51620  1.0000
  C   C69       1.0  0.47677  0.17330  0.01620  1.0000
  C   C70       1.0  0.52323  0.17330  0.48380  1.0000
  C   C71       1.0  0.97677  0.67330  0.01620  1.0000
  C   C72       1.0  0.02323  0.67330  0.48380  1.0000
  H   H17       1.0  0.54390  0.80150  0.02810  1.0000
  H   H18       1.0  0.45610  0.80150  0.47190  1.0000
  H   H19       1.0  0.04390  0.30150  0.02810  1.0000
  H   H20       1.0  0.95610  0.30150  0.47190  1.0000
  H   H21       1.0  0.45610  0.19850  0.97190  1.0000
  H   H22       1.0  0.54390  0.19850  0.52810  1.0000
  H   H23       1.0  0.95610  0.69850  0.97190  1.0000
  H   H24       1.0  0.04390  0.69850  0.52810  1.0000
  C   C73       1.0  0.48477  0.82540  0.97720  1.0000
  C   C74       1.0  0.51523  0.82540  0.52280  1.0000
  C   C75       1.0  0.98477  0.32540  0.97720  1.0000
  C   C76       1.0  0.01523  0.32540  0.52280  1.0000
  C   C77       1.0  0.51523  0.17460  0.02280  1.0000
  C   C78       1.0  0.48477  0.17460  0.47720  1.0000
  C   C79       1.0  0.01523  0.67460  0.02280  1.0000
  C   C80       1.0  0.98477  0.67460  0.47720  1.0000
  H   H25       1.0  0.47910  0.79660  0.01660  1.0000
  H   H26       1.0  0.52090  0.79660  0.48340  1.0000
  H   H27       1.0  0.97910  0.29660  0.01660  1.0000
  H   H28       1.0  0.02090  0.29660  0.48340  1.0000
  H   H29       1.0  0.52090  0.20340  0.98340  1.0000
  H   H30       1.0  0.47910  0.20340  0.51660  1.0000
  H   H31       1.0  0.02090  0.70340  0.98340  1.0000
  H   H32       1.0  0.97910  0.70340  0.51660  1.0000
  C   C81       1.0  0.45482  0.86700  0.91177  1.0000
  C   C82       1.0  0.54518  0.86700  0.58823  1.0000
  C   C83       1.0  0.95482  0.36700  0.91177  1.0000
  C   C84       1.0  0.04518  0.36700  0.58823  1.0000
  C   C85       1.0  0.54518  0.13300  0.08823  1.0000
  C   C86       1.0  0.45482  0.13300  0.41177  1.0000
  C   C87       1.0  0.04518  0.63300  0.08823  1.0000
  C   C88       1.0  0.95482  0.63300  0.41177  1.0000
  H   H33       1.0  0.42910  0.86830  0.90850  1.0000
  H   H34       1.0  0.57090  0.86830  0.59150  1.0000
  H   H35       1.0  0.92910  0.36830  0.90850  1.0000
  H   H36       1.0  0.07090  0.36830  0.59150  1.0000
  H   H37       1.0  0.57090  0.13170  0.09150  1.0000
  H   H38       1.0  0.42910  0.13170  0.40850  1.0000
  H   H39       1.0  0.07090  0.63170  0.09150  1.0000
  H   H40       1.0  0.92910  0.63170  0.40850  1.0000
  C   C89       1.0  0.37307  0.27540  0.90840  1.0000
  C   C90       1.0  0.62693  0.27540  0.59160  1.0000
  C   C91       1.0  0.87307  0.77540  0.90840  1.0000
  C   C92       1.0  0.12693  0.77540  0.59160  1.0000
  C   C93       1.0  0.62693  0.72460  0.09160  1.0000
  C   C94       1.0  0.37307  0.72460  0.40840  1.0000
  C   C95       1.0  0.12693  0.22460  0.09160  1.0000
  C   C96       1.0  0.87307  0.22460  0.40840  1.0000
  H   H41       1.0  0.37260  0.18450  0.91310  1.0000
  H   H42       1.0  0.62740  0.18450  0.58690  1.0000
  H   H43       1.0  0.87260  0.68450  0.91310  1.0000
  H   H44       1.0  0.12740  0.68450  0.58690  1.0000
  H   H45       1.0  0.62740  0.81550  0.08690  1.0000
  H   H46       1.0  0.37260  0.81550  0.41310  1.0000
  H   H47       1.0  0.12740  0.31550  0.08690  1.0000
  H   H48       1.0  0.87260  0.31550  0.41310  1.0000
  C   C97       1.0  0.37542  0.35290  0.96720  1.0000
  C   C98       1.0  0.62458  0.35290  0.53280  1.0000
  C   C99       1.0  0.87542  0.85290  0.96720  1.0000
  C   C100      1.0  0.12458  0.85290  0.53280  1.0000
  C   C101      1.0  0.62458  0.64710  0.03280  1.0000
  C   C102      1.0  0.37542  0.64710  0.46720  1.0000
  C   C103      1.0  0.12458  0.14710  0.03280  1.0000
  C   C104      1.0  0.87542  0.14710  0.46720  1.0000
  H   H49       1.0  0.37630  0.31510  0.01090  1.0000
  H   H50       1.0  0.62370  0.31510  0.48910  1.0000
  H   H51       1.0  0.87630  0.81510  0.01090  1.0000
  H   H52       1.0  0.12370  0.81510  0.48910  1.0000
  H   H53       1.0  0.62370  0.68490  0.98910  1.0000
  H   H54       1.0  0.37630  0.68490  0.51090  1.0000
  H   H55       1.0  0.12370  0.18490  0.98910  1.0000
  H   H56       1.0  0.87630  0.18490  0.51090  1.0000
  C   C105      1.0  0.37650  0.48720  0.96050  1.0000
  C   C106      1.0  0.62350  0.48720  0.53950  1.0000
  C   C107      1.0  0.87650  0.98720  0.96050  1.0000
  C   C108      1.0  0.12350  0.98720  0.53950  1.0000
  C   C109      1.0  0.62350  0.51280  0.03950  1.0000
  C   C110      1.0  0.37650  0.51280  0.46050  1.0000
  C   C111      1.0  0.12350  0.01280  0.03950  1.0000
  C   C112      1.0  0.87650  0.01280  0.46050  1.0000
  H   H57       1.0  0.37810  0.54160  0.99970  1.0000
  H   H58       1.0  0.62190  0.54160  0.50030  1.0000
  H   H59       1.0  0.87810  0.04160  0.99970  1.0000
  H   H60       1.0  0.12190  0.04160  0.50030  1.0000
  H   H61       1.0  0.62190  0.45840  0.00030  1.0000
  H   H62       1.0  0.37810  0.45840  0.49970  1.0000
  H   H63       1.0  0.12190  0.95840  0.00030  1.0000
  H   H64       1.0  0.87810  0.95840  0.49970  1.0000
  C   C113      1.0  0.37510  0.54090  0.89440  1.0000
  C   C114      1.0  0.62490  0.54090  0.60560  1.0000
  C   C115      1.0  0.87510  0.04090  0.89440  1.0000
  C   C116      1.0  0.12490  0.04090  0.60560  1.0000
  C   C117      1.0  0.62490  0.45910  0.10560  1.0000
  C   C118      1.0  0.37510  0.45910  0.39440  1.0000
  C   C119      1.0  0.12490  0.95910  0.10560  1.0000
  C   C120      1.0  0.87510  0.95910  0.39440  1.0000
  H   H65       1.0  0.37620  0.63150  0.88900  1.0000
  H   H66       1.0  0.62380  0.63150  0.61100  1.0000
  H   H67       1.0  0.87620  0.13150  0.88900  1.0000
  H   H68       1.0  0.12380  0.13150  0.61100  1.0000
  H   H69       1.0  0.62380  0.36850  0.11100  1.0000
  H   H70       1.0  0.37620  0.36850  0.38900  1.0000
  H   H71       1.0  0.12380  0.86850  0.11100  1.0000
  H   H72       1.0  0.87620  0.86850  0.38900  1.0000
  C   C121      1.0  0.37227  0.45760  0.83750  1.0000
  C   C122      1.0  0.62773  0.45760  0.66250  1.0000
  C   C123      1.0  0.87227  0.95760  0.83750  1.0000
  C   C124      1.0  0.12773  0.95760  0.66250  1.0000
  C   C125      1.0  0.62773  0.54240  0.16250  1.0000
  C   C126      1.0  0.37227  0.54240  0.33750  1.0000
  C   C127      1.0  0.12773  0.04240  0.16250  1.0000
  C   C128      1.0  0.87227  0.04240  0.33750  1.0000
  H   H73       1.0  0.37080  0.49340  0.79290  1.0000
  H   H74       1.0  0.62920  0.49340  0.70710  1.0000
  H   H75       1.0  0.87080  0.99340  0.79290  1.0000
  H   H76       1.0  0.12920  0.99340  0.70710  1.0000
  H   H77       1.0  0.62920  0.50660  0.20710  1.0000
  H   H78       1.0  0.37080  0.50660  0.29290  1.0000
  H   H79       1.0  0.12920  0.00660  0.20710  1.0000
  H   H80       1.0  0.87080  0.00660  0.29290  1.0000
  C   C129      1.0  0.43968  0.45100  0.64940  1.0000
  C   C130      1.0  0.56032  0.45100  0.85060  1.0000
  C   C131      1.0  0.93968  0.95100  0.64940  1.0000
  C   C132      1.0  0.06032  0.95100  0.85060  1.0000
  C   C133      1.0  0.56032  0.54900  0.35060  1.0000
  C   C134      1.0  0.43968  0.54900  0.14940  1.0000
  C   C135      1.0  0.06032  0.04900  0.35060  1.0000
  C   C136      1.0  0.93968  0.04900  0.14940  1.0000
  H   H81       1.0  0.41590  0.47920  0.64970  1.0000
  H   H82       1.0  0.58410  0.47920  0.85030  1.0000
  H   H83       1.0  0.91590  0.97920  0.64970  1.0000
  H   H84       1.0  0.08410  0.97920  0.85030  1.0000
  H   H85       1.0  0.58410  0.52080  0.35030  1.0000
  H   H86       1.0  0.41590  0.52080  0.14970  1.0000
  H   H87       1.0  0.08410  0.02080  0.35030  1.0000
  H   H88       1.0  0.91590  0.02080  0.14970  1.0000
  C   C137      1.0  0.46527  0.54290  0.64350  1.0000
  C   C138      1.0  0.53473  0.54290  0.85650  1.0000
  C   C139      1.0  0.96527  0.04290  0.64350  1.0000
  C   C140      1.0  0.03473  0.04290  0.85650  1.0000
  C   C141      1.0  0.53473  0.45710  0.35650  1.0000
  C   C142      1.0  0.46527  0.45710  0.14350  1.0000
  C   C143      1.0  0.03473  0.95710  0.35650  1.0000
  C   C144      1.0  0.96527  0.95710  0.14350  1.0000
  H   H89       1.0  0.45890  0.63190  0.63990  1.0000
  H   H90       1.0  0.54110  0.63190  0.86010  1.0000
  H   H91       1.0  0.95890  0.13190  0.63990  1.0000
  H   H92       1.0  0.04110  0.13190  0.86010  1.0000
  H   H93       1.0  0.54110  0.36810  0.36010  1.0000
  H   H94       1.0  0.45890  0.36810  0.13990  1.0000
  H   H95       1.0  0.04110  0.86810  0.36010  1.0000
  H   H96       1.0  0.95890  0.86810  0.13990  1.0000
  C   C145      1.0  0.50075  0.50140  0.64300  1.0000
  C   C146      1.0  0.49925  0.50140  0.85700  1.0000
  C   C147      1.0  0.00075  0.00140  0.64300  1.0000
  C   C148      1.0  0.99925  0.00140  0.85700  1.0000
  C   C149      1.0  0.49925  0.49860  0.35700  1.0000
  C   C150      1.0  0.50075  0.49860  0.14300  1.0000
  C   C151      1.0  0.99925  0.99860  0.35700  1.0000
  C   C152      1.0  0.00075  0.99860  0.14300  1.0000
  H   H97       1.0  0.51850  0.56190  0.63870  1.0000
  H   H98       1.0  0.48150  0.56190  0.86130  1.0000
  H   H99       1.0  0.01850  0.06190  0.63870  1.0000
  H   H100      1.0  0.98150  0.06190  0.86130  1.0000
  H   H101      1.0  0.48150  0.43810  0.36130  1.0000
  H   H102      1.0  0.51850  0.43810  0.13870  1.0000
  H   H103      1.0  0.98150  0.93810  0.36130  1.0000
  H   H104      1.0  0.01850  0.93810  0.13870  1.0000
  C   C153      1.0  0.50930  0.36820  0.64890  1.0000
  C   C154      1.0  0.49070  0.36820  0.85110  1.0000
  C   C155      1.0  0.00930  0.86820  0.64890  1.0000
  C   C156      1.0  0.99070  0.86820  0.85110  1.0000
  C   C157      1.0  0.49070  0.63180  0.35110  1.0000
  C   C158      1.0  0.50930  0.63180  0.14890  1.0000
  C   C159      1.0  0.99070  0.13180  0.35110  1.0000
  C   C160      1.0  0.00930  0.13180  0.14890  1.0000
  H   H105      1.0  0.53290  0.33760  0.64890  1.0000
  H   H106      1.0  0.46710  0.33760  0.85110  1.0000
  H   H107      1.0  0.03290  0.83760  0.64890  1.0000
  H   H108      1.0  0.96710  0.83760  0.85110  1.0000
  H   H109      1.0  0.46710  0.66240  0.35110  1.0000
  H   H110      1.0  0.53290  0.66240  0.14890  1.0000
  H   H111      1.0  0.96710  0.16240  0.35110  1.0000
  H   H112      1.0  0.03290  0.16240  0.14890  1.0000
  C   C161      1.0  0.48194  0.28140  0.65495  1.0000
  C   C162      1.0  0.51806  0.28140  0.84505  1.0000
  C   C163      1.0  0.98194  0.78140  0.65495  1.0000
  C   C164      1.0  0.01806  0.78140  0.84505  1.0000
  C   C165      1.0  0.51806  0.71860  0.34505  1.0000
  C   C166      1.0  0.48194  0.71860  0.15495  1.0000
  C   C167      1.0  0.01806  0.21860  0.34505  1.0000
  C   C168      1.0  0.98194  0.21860  0.15495  1.0000
  H   H113      1.0  0.48760  0.19190  0.65920  1.0000
  H   H114      1.0  0.51240  0.19190  0.84080  1.0000
  H   H115      1.0  0.98760  0.69190  0.65920  1.0000
  H   H116      1.0  0.01240  0.69190  0.84080  1.0000
  H   H117      1.0  0.51240  0.80810  0.34080  1.0000
  H   H118      1.0  0.48760  0.80810  0.15920  1.0000
  H   H119      1.0  0.01240  0.30810  0.34080  1.0000
  H   H120      1.0  0.98760  0.30810  0.15920  1.0000
  N   N1        1.0  0.46142  0.90560  0.85264  1.0000
  N   N2        1.0  0.53858  0.90560  0.64736  1.0000
  N   N3        1.0  0.96142  0.40560  0.85264  1.0000
  N   N4        1.0  0.03858  0.40560  0.64736  1.0000
  N   N5        1.0  0.53858  0.09440  0.14736  1.0000
  N   N6        1.0  0.46142  0.09440  0.35264  1.0000
  N   N7        1.0  0.03858  0.59440  0.14736  1.0000
  N   N8        1.0  0.96142  0.59440  0.35264  1.0000
  N   N9        1.0  0.37145  0.32680  0.84381  1.0000
  N   N10       1.0  0.62855  0.32680  0.65619  1.0000
  N   N11       1.0  0.87145  0.82680  0.84381  1.0000
  N   N12       1.0  0.12855  0.82680  0.65619  1.0000
  N   N13       1.0  0.62855  0.67320  0.15619  1.0000
  N   N14       1.0  0.37145  0.67320  0.34381  1.0000
  N   N15       1.0  0.12855  0.17320  0.15619  1.0000
  N   N16       1.0  0.87145  0.17320  0.34381  1.0000
  N   N17       1.0  0.44765  0.32200  0.65488  1.0000
  N   N18       1.0  0.55235  0.32200  0.84512  1.0000
  N   N19       1.0  0.94765  0.82200  0.65488  1.0000
  N   N20       1.0  0.05235  0.82200  0.84512  1.0000
  N   N21       1.0  0.55235  0.67800  0.34512  1.0000
  N   N22       1.0  0.44765  0.67800  0.15488  1.0000
  N   N23       1.0  0.05235  0.17800  0.34512  1.0000
  N   N24       1.0  0.94765  0.17800  0.15488  1.0000
