data_image0
_chemical_formula_structural       Ag2S4O4C2H2O8C2H4C2H2C2H4C2H4C2H4
_chemical_formula_sum              "Ag2 S4 O12 C12 H20"
_cell_length_a       9.156
_cell_length_b       5.4451
_cell_length_c       13.5638
_cell_angle_alpha    90
_cell_angle_beta     100.049
_cell_angle_gamma    90

_space_group_name_H-M_alt    "P 1"
_space_group_IT_number       1

loop_
  _space_group_symop_operation_xyz
  'x, y, z'

loop_
  _atom_site_type_symbol
  _atom_site_label
  _atom_site_symmetry_multiplicity
  _atom_site_fract_x
  _atom_site_fract_y
  _atom_site_fract_z
  _atom_site_occupancy
  Ag  Ag1       1.0  0.45563  0.06282  0.95273  1.0000
  Ag  Ag2       1.0  0.54437  0.56282  0.04727  1.0000
  S   S1        1.0  0.23384  0.51971  0.84253  1.0000
  S   S2        1.0  0.76616  0.01971  0.15747  1.0000
  S   S3        1.0  0.59280  0.64461  0.79490  1.0000
  S   S4        1.0  0.40720  0.14461  0.20510  1.0000
  O   O1        1.0  0.07489  0.55610  0.83625  1.0000
  O   O2        1.0  0.92511  0.05610  0.16375  1.0000
  O   O3        1.0  0.71558  0.59860  0.74187  1.0000
  O   O4        1.0  0.28442  0.09860  0.25813  1.0000
  C   C1        1.0  0.42860  0.57860  0.70386  1.0000
  C   C2        1.0  0.57140  0.07860  0.29614  1.0000
  H   H1        1.0  0.42420  0.39700  0.69290  1.0000
  H   H2        1.0  0.57580  0.89700  0.30710  1.0000
  O   O5        1.0  0.27273  0.25970  0.83781  1.0000
  O   O6        1.0  0.72727  0.75970  0.16219  1.0000
  O   O7        1.0  0.59763  0.47790  0.87995  1.0000
  O   O8        1.0  0.40237  0.97790  0.12005  1.0000
  O   O9        1.0  0.31893  0.64780  0.92874  1.0000
  O   O10       1.0  0.68107  0.14780  0.07126  1.0000
  O   O11       1.0  0.58138  0.90440  0.82204  1.0000
  O   O12       1.0  0.41862  0.40440  0.17796  1.0000
  C   C3        1.0  0.15290  0.60250  0.64338  1.0000
  C   C4        1.0  0.84710  0.10250  0.35662  1.0000
  H   H3        1.0  0.14770  0.42280  0.63230  1.0000
  H   H4        1.0  0.85230  0.92280  0.36770  1.0000
  H   H5        1.0  0.05750  0.65630  0.66100  1.0000
  H   H6        1.0  0.94250  0.15630  0.33900  1.0000
  C   C5        1.0  0.27950  0.66030  0.73121  1.0000
  C   C6        1.0  0.72050  0.16030  0.26879  1.0000
  H   H7        1.0  0.28300  0.84220  0.74140  1.0000
  H   H8        1.0  0.71700  0.34220  0.25860  1.0000
  C   C7        1.0  0.44990  0.70100  0.60498  1.0000
  C   C8        1.0  0.55010  0.20100  0.39502  1.0000
  H   H9        1.0  0.45980  0.88060  0.61540  1.0000
  H   H10       1.0  0.54020  0.38060  0.38460  1.0000
  H   H11       1.0  0.54330  0.64040  0.58630  1.0000
  H   H12       1.0  0.45670  0.14040  0.41370  1.0000
  C   C9        1.0  0.32260  0.65100  0.51914  1.0000
  C   C10       1.0  0.67740  0.15100  0.48086  1.0000
  H   H13       1.0  0.31920  0.47350  0.50300  1.0000
  H   H14       1.0  0.68080  0.97350  0.49700  1.0000
  H   H15       1.0  0.33910  0.74230  0.45890  1.0000
  H   H16       1.0  0.66090  0.24230  0.54110  1.0000
  C   C11       1.0  0.17520  0.72940  0.54718  1.0000
  C   C12       1.0  0.82480  0.22940  0.45282  1.0000
  H   H17       1.0  0.17440  0.90970  0.55650  1.0000
  H   H18       1.0  0.82560  0.40970  0.44350  1.0000
  H   H19       1.0  0.09290  0.68580  0.49240  1.0000
  H   H20       1.0  0.90710  0.18580  0.50760  1.0000
