data_image0
_chemical_formula_structural       Mo12P8O56C8H8C4H8O4C4H8N4H12
_chemical_formula_sum              "Mo12 P8 O60 C16 H36 N4"
_cell_length_a       14.626
_cell_length_b       17.129
_cell_length_c       9.684
_cell_angle_alpha    90
_cell_angle_beta     90
_cell_angle_gamma    90

_space_group_name_H-M_alt    "P 1"
_space_group_IT_number       1

loop_
  _space_group_symop_operation_xyz
  'x, y, z'

loop_
  _atom_site_type_symbol
  _atom_site_label
  _atom_site_symmetry_multiplicity
  _atom_site_fract_x
  _atom_site_fract_y
  _atom_site_fract_z
  _atom_site_occupancy
  Mo  Mo1       1.0  0.38297  0.90927  0.60333  1.0000
  Mo  Mo2       1.0  0.61703  0.09073  0.60333  1.0000
  Mo  Mo3       1.0  0.11703  0.40927  0.39667  1.0000
  Mo  Mo4       1.0  0.88297  0.59073  0.39667  1.0000
  Mo  Mo5       1.0  0.43177  0.95297  0.98449  1.0000
  Mo  Mo6       1.0  0.56823  0.04703  0.98449  1.0000
  Mo  Mo7       1.0  0.06823  0.45297  0.01551  1.0000
  Mo  Mo8       1.0  0.93177  0.54703  0.01551  1.0000
  Mo  Mo9       1.0  0.20842  0.79598  0.61329  1.0000
  Mo  Mo10      1.0  0.79158  0.20402  0.61329  1.0000
  Mo  Mo11      1.0  0.29158  0.29598  0.38671  1.0000
  Mo  Mo12      1.0  0.70842  0.70402  0.38671  1.0000
  P   P1        1.0  0.34584  0.78058  0.88050  1.0000
  P   P2        1.0  0.65416  0.21942  0.88050  1.0000
  P   P3        1.0  0.15416  0.28058  0.11950  1.0000
  P   P4        1.0  0.84584  0.71942  0.11950  1.0000
  P   P5        1.0  0.21918  0.92025  0.86790  1.0000
  P   P6        1.0  0.78082  0.07975  0.86790  1.0000
  P   P7        1.0  0.28082  0.42025  0.13210  1.0000
  P   P8        1.0  0.71918  0.57975  0.13210  1.0000
  O   O1        1.0  0.43840  0.06530  0.96130  1.0000
  O   O2        1.0  0.56160  0.93470  0.96130  1.0000
  O   O3        1.0  0.06160  0.56530  0.03870  1.0000
  O   O4        1.0  0.93840  0.43470  0.03870  1.0000
  O   O5        1.0  0.41620  0.94320  0.15710  1.0000
  O   O6        1.0  0.58380  0.05680  0.15710  1.0000
  O   O7        1.0  0.08380  0.44320  0.84290  1.0000
  O   O8        1.0  0.91620  0.55680  0.84290  1.0000
  O   O9        1.0  0.12340  0.94830  0.89240  1.0000
  O   O10       1.0  0.87660  0.05170  0.89240  1.0000
  O   O11       1.0  0.37660  0.44830  0.10760  1.0000
  O   O12       1.0  0.62340  0.55170  0.10760  1.0000
  O   O13       1.0  0.41340  0.83050  0.96240  1.0000
  O   O14       1.0  0.58660  0.16950  0.96240  1.0000
  O   O15       1.0  0.08660  0.33050  0.03760  1.0000
  O   O16       1.0  0.91340  0.66950  0.03760  1.0000
  O   O17       1.0  0.42470  0.94300  0.76370  1.0000
  O   O18       1.0  0.57530  0.05700  0.76370  1.0000
  O   O19       1.0  0.07530  0.44300  0.23630  1.0000
  O   O20       1.0  0.92470  0.55700  0.23630  1.0000
  O   O21       1.0  0.35600  0.69610  0.91310  1.0000
  O   O22       1.0  0.64400  0.30390  0.91310  1.0000
  O   O23       1.0  0.14400  0.19610  0.08690  1.0000
  O   O24       1.0  0.85600  0.80390  0.08690  1.0000
  O   O25       1.0  0.17490  0.77850  0.80820  1.0000
  O   O26       1.0  0.82510  0.22150  0.80820  1.0000
  O   O27       1.0  0.32510  0.27850  0.19180  1.0000
  O   O28       1.0  0.67490  0.72150  0.19180  1.0000
  O   O29       1.0  0.47850  0.86670  0.52980  1.0000
  O   O30       1.0  0.52150  0.13330  0.52980  1.0000
  O   O31       1.0  0.02150  0.36670  0.47020  1.0000
  O   O32       1.0  0.97850  0.63330  0.47020  1.0000
  O   O33       1.0  0.35140  0.79410  0.72180  1.0000
  O   O34       1.0  0.64860  0.20590  0.72180  1.0000
  O   O35       1.0  0.14860  0.29410  0.27820  1.0000
  O   O36       1.0  0.85140  0.70590  0.27820  1.0000
  O   O37       1.0  0.36580  0.99430  0.51170  1.0000
  O   O38       1.0  0.63420  0.00570  0.51170  1.0000
  O   O39       1.0  0.13420  0.49430  0.48830  1.0000
  O   O40       1.0  0.86580  0.50570  0.48830  1.0000
  O   O41       1.0  0.24100  0.91850  0.71120  1.0000
  O   O42       1.0  0.75900  0.08150  0.71120  1.0000
  O   O43       1.0  0.25900  0.41850  0.28880  1.0000
  O   O44       1.0  0.74100  0.58150  0.28880  1.0000
  O   O45       1.0  0.29020  0.96770  0.94990  1.0000
  O   O46       1.0  0.70980  0.03230  0.94990  1.0000
  O   O47       1.0  0.20980  0.46770  0.05010  1.0000
  O   O48       1.0  0.79020  0.53230  0.05010  1.0000
  O   O49       1.0  0.29060  0.84600  0.49470  1.0000
  O   O50       1.0  0.70940  0.15400  0.49470  1.0000
  O   O51       1.0  0.20940  0.34600  0.50530  1.0000
  O   O52       1.0  0.79060  0.65400  0.50530  1.0000
  O   O53       1.0  0.21600  0.70070  0.55970  1.0000
  O   O54       1.0  0.78400  0.29930  0.55970  1.0000
  O   O55       1.0  0.28400  0.20070  0.44030  1.0000
  O   O56       1.0  0.71600  0.79930  0.44030  1.0000
  C   C1        1.0  0.23070  0.81630  0.91270  1.0000
  C   C2        1.0  0.76930  0.18370  0.91270  1.0000
  C   C3        1.0  0.26930  0.31630  0.08730  1.0000
  C   C4        1.0  0.73070  0.68370  0.08730  1.0000
  C   C5        1.0  0.12730  0.70890  0.23260  1.0000
  C   C6        1.0  0.87270  0.29110  0.23260  1.0000
  C   C7        1.0  0.37270  0.20890  0.76740  1.0000
  C   C8        1.0  0.62730  0.79110  0.76740  1.0000
  H   H1        1.0  0.14760  0.74410  0.30480  1.0000
  H   H2        1.0  0.85240  0.25590  0.30480  1.0000
  H   H3        1.0  0.35240  0.24410  0.69520  1.0000
  H   H4        1.0  0.64760  0.75590  0.69520  1.0000
  H   H5        1.0  0.06510  0.72280  0.20840  1.0000
  H   H6        1.0  0.93490  0.27720  0.20840  1.0000
  H   H7        1.0  0.43490  0.22280  0.79160  1.0000
  H   H8        1.0  0.56510  0.77720  0.79160  1.0000
  C   C9        1.0  0.18830  0.71840  0.10680  1.0000
  C   C10       1.0  0.81170  0.28160  0.10680  1.0000
  C   C11       1.0  0.31170  0.21840  0.89320  1.0000
  C   C12       1.0  0.68830  0.78160  0.89320  1.0000
  H   H9        1.0  0.24990  0.70180  0.12950  1.0000
  H   H10       1.0  0.75010  0.29820  0.12950  1.0000
  H   H11       1.0  0.25010  0.20180  0.87050  1.0000
  H   H12       1.0  0.74990  0.79820  0.87050  1.0000
  H   H13       1.0  0.16600  0.68550  0.03270  1.0000
  H   H14       1.0  0.83400  0.31450  0.03270  1.0000
  H   H15       1.0  0.33400  0.18550  0.96730  1.0000
  H   H16       1.0  0.66600  0.81450  0.96730  1.0000
  O   O57       1.0  0.10450  0.82490  0.55160  1.0000
  O   O58       1.0  0.89550  0.17510  0.55160  1.0000
  O   O59       1.0  0.39550  0.32490  0.44840  1.0000
  O   O60       1.0  0.60450  0.67510  0.44840  1.0000
  C   C13       1.0  0.19030  0.80200  0.05890  1.0000
  C   C14       1.0  0.80970  0.19800  0.05890  1.0000
  C   C15       1.0  0.30970  0.30200  0.94110  1.0000
  C   C16       1.0  0.69030  0.69800  0.94110  1.0000
  H   H17       1.0  0.22550  0.83220  0.12480  1.0000
  H   H18       1.0  0.77450  0.16780  0.12480  1.0000
  H   H19       1.0  0.27450  0.33220  0.87520  1.0000
  H   H20       1.0  0.72550  0.66780  0.87520  1.0000
  H   H21       1.0  0.12830  0.82200  0.06040  1.0000
  H   H22       1.0  0.87170  0.17800  0.06040  1.0000
  H   H23       1.0  0.37170  0.32200  0.93960  1.0000
  H   H24       1.0  0.62830  0.67800  0.93960  1.0000
  N   N1        1.0  0.12900  0.62920  0.28430  1.0000
  N   N2        1.0  0.87100  0.37080  0.28430  1.0000
  N   N3        1.0  0.37100  0.12920  0.71570  1.0000
  N   N4        1.0  0.62900  0.87080  0.71570  1.0000
  H   H25       1.0  0.09290  0.62540  0.35790  1.0000
  H   H26       1.0  0.90710  0.37460  0.35790  1.0000
  H   H27       1.0  0.40710  0.12540  0.64210  1.0000
  H   H28       1.0  0.59290  0.87460  0.64210  1.0000
  H   H29       1.0  0.18590  0.61650  0.30780  1.0000
  H   H30       1.0  0.81410  0.38350  0.30780  1.0000
  H   H31       1.0  0.31410  0.11650  0.69220  1.0000
  H   H32       1.0  0.68590  0.88350  0.69220  1.0000
  H   H33       1.0  0.10930  0.59690  0.21880  1.0000
  H   H34       1.0  0.89070  0.40310  0.21880  1.0000
  H   H35       1.0  0.39070  0.09690  0.78120  1.0000
  H   H36       1.0  0.60930  0.90310  0.78120  1.0000
