data_image0
_chemical_formula_structural       Cd3O5C3HCHC5HCHC2O5C3HCHC2O5C3HCHC2O5
_chemical_formula_sum              "Cd3 O20 C24 H8"
_cell_length_a       9.4378
_cell_length_b       10.192
_cell_length_c       11.234
_cell_angle_alpha    64.11
_cell_angle_beta     73.1
_cell_angle_gamma    83.18

_space_group_name_H-M_alt    "P 1"
_space_group_IT_number       1

loop_
  _space_group_symop_operation_xyz
  'x, y, z'

loop_
  _atom_site_type_symbol
  _atom_site_label
  _atom_site_symmetry_multiplicity
  _atom_site_fract_x
  _atom_site_fract_y
  _atom_site_fract_z
  _atom_site_occupancy
  Cd  Cd1       1.0  0.05325  0.16732  0.29976  1.0000
  Cd  Cd2       1.0  0.04773  0.82151  0.60892  1.0000
  Cd  Cd3       1.0  0.07674  0.50318  0.98253  1.0000
  O   O1        1.0  0.27600  0.91110  0.48530  1.0000
  O   O2        1.0  0.27990  0.07320  0.26740  1.0000
  O   O3        1.0  0.56690  0.93010  0.43160  1.0000
  O   O4        1.0  0.75780  0.79670  0.58850  1.0000
  O   O5        1.0  0.94220  0.93690  0.42290  1.0000
  C   C1        1.0  0.33360  0.98780  0.36690  1.0000
  C   C2        1.0  0.50040  0.99490  0.32750  1.0000
  C   C3        1.0  0.60770  0.06510  0.20430  1.0000
  H   H1        1.0  0.59080  0.12110  0.11870  1.0000
  C   C4        1.0  0.74580  0.03570  0.23380  1.0000
  H   H2        1.0  0.83800  0.06550  0.17110  1.0000
  C   C5        1.0  0.71780  0.95230  0.37670  1.0000
  C   C6        1.0  0.81430  0.89720  0.46650  1.0000
  C   C7        1.0  0.29540  0.44430  0.13150  1.0000
  C   C8        1.0  0.39670  0.39400  0.22310  1.0000
  C   C9        1.0  0.37580  0.32970  0.35780  1.0000
  H   H3        1.0  0.28490  0.30660  0.42350  1.0000
  C   C10       1.0  0.51350  0.30280  0.38340  1.0000
  H   H4        1.0  0.53200  0.25850  0.46930  1.0000
  C   C11       1.0  0.61450  0.35190  0.26280  1.0000
  C   C12       1.0  0.77700  0.35640  0.22230  1.0000
  O   O6        1.0  0.15690  0.40280  0.19290  1.0000
  O   O7        1.0  0.34230  0.52320  0.00900  1.0000
  O   O8        1.0  0.54420  0.41930  0.15890  1.0000
  O   O9        1.0  0.84250  0.28670  0.31430  1.0000
  O   O10       1.0  0.84230  0.42720  0.09810  1.0000
  C   C13       1.0  0.97760  0.09920  0.63620  1.0000
  C   C14       1.0  0.93890  0.19120  0.71500  1.0000
  C   C15       1.0  0.86080  0.15490  0.84710  1.0000
  H   H5        1.0  0.81520  0.06580  0.90990  1.0000
  C   C16       1.0  0.86290  0.28080  0.87000  1.0000
  H   H6        1.0  0.81610  0.29290  0.94960  1.0000
  C   C17       1.0  0.94750  0.37940  0.75120  1.0000
  C   C18       1.0  0.99890  0.53490  0.70480  1.0000
  O   O11       1.0  0.94070  0.96750  0.70390  1.0000
  O   O12       1.0  0.04390  0.16910  0.50640  1.0000
  O   O13       1.0  0.99710  0.32600  0.65630  1.0000
  O   O14       1.0  0.96300  0.58700  0.79400  1.0000
  O   O15       1.0  0.06890  0.60330  0.58820  1.0000
  C   C19       1.0  0.15100  0.79290  0.87610  1.0000
  C   C20       1.0  0.19740  0.93600  0.85070  1.0000
  C   C21       1.0  0.28560  0.03760  0.73420  1.0000
  H   H7        1.0  0.33360  0.02730  0.65380  1.0000
  C   C22       1.0  0.29010  0.16060  0.75890  1.0000
  H   H8        1.0  0.34140  0.24700  0.69680  1.0000
  C   C23       1.0  0.20570  0.13200  0.89040  1.0000
  C   C24       1.0  0.15820  0.21100  0.97580  1.0000
  O   O16       1.0  0.06580  0.72140  0.99540  1.0000
  O   O17       1.0  0.20440  0.74830  0.78620  1.0000
  O   O18       1.0  0.14830  0.98860  0.94840  1.0000
  O   O19       1.0  0.20170  0.34550  0.90710  1.0000
  O   O20       1.0  0.07790  0.16190  0.08790  1.0000
