data_image0
_chemical_formula_structural       Fe4O36N8C12H4C4H4C8H4C16H4C4H4C8H4C4H8
_chemical_formula_sum              "Fe4 O36 N8 C56 H32"
_cell_length_a       13.2018
_cell_length_b       12.0083
_cell_length_c       13.7367
_cell_angle_alpha    90
_cell_angle_beta     100.85
_cell_angle_gamma    90

_space_group_name_H-M_alt    "P 1"
_space_group_IT_number       1

loop_
  _space_group_symop_operation_xyz
  'x, y, z'

loop_
  _atom_site_type_symbol
  _atom_site_label
  _atom_site_symmetry_multiplicity
  _atom_site_fract_x
  _atom_site_fract_y
  _atom_site_fract_z
  _atom_site_occupancy
  Fe  Fe1       1.0  0.34083  0.09041  0.83213  1.0000
  Fe  Fe2       1.0  0.65917  0.59041  0.66787  1.0000
  Fe  Fe3       1.0  0.65917  0.90959  0.16787  1.0000
  Fe  Fe4       1.0  0.34083  0.40959  0.33213  1.0000
  O   O1        1.0  0.31022  0.06450  0.97467  1.0000
  O   O2        1.0  0.68978  0.56450  0.52533  1.0000
  O   O3        1.0  0.68978  0.93550  0.02533  1.0000
  O   O4        1.0  0.31022  0.43550  0.47467  1.0000
  O   O5        1.0  0.19910  0.01374  0.77161  1.0000
  O   O6        1.0  0.80090  0.51374  0.72839  1.0000
  O   O7        1.0  0.80090  0.98626  0.22839  1.0000
  O   O8        1.0  0.19910  0.48626  0.27161  1.0000
  O   O9        1.0  0.67004  0.76419  0.89651  1.0000
  O   O10       1.0  0.32996  0.26419  0.60349  1.0000
  O   O11       1.0  0.32996  0.23581  0.10349  1.0000
  O   O12       1.0  0.67004  0.73581  0.39651  1.0000
  O   O13       1.0  0.27347  0.25070  0.82763  1.0000
  O   O14       1.0  0.72653  0.75070  0.67237  1.0000
  O   O15       1.0  0.72653  0.74930  0.17237  1.0000
  O   O16       1.0  0.27347  0.24930  0.32763  1.0000
  O   O17       1.0  0.11869  0.85184  0.73510  1.0000
  O   O18       1.0  0.88131  0.35184  0.76490  1.0000
  O   O19       1.0  0.88131  0.14816  0.26490  1.0000
  O   O20       1.0  0.11869  0.64816  0.23510  1.0000
  O   O21       1.0  0.61241  0.61719  0.80524  1.0000
  O   O22       1.0  0.38759  0.11719  0.69476  1.0000
  O   O23       1.0  0.38759  0.38281  0.19476  1.0000
  O   O24       1.0  0.61241  0.88281  0.30524  1.0000
  O   O25       1.0  0.30600  0.43042  0.85550  1.0000
  O   O26       1.0  0.69400  0.93042  0.64450  1.0000
  O   O27       1.0  0.69400  0.56958  0.14450  1.0000
  O   O28       1.0  0.30600  0.06958  0.35550  1.0000
  O   O29       1.0  0.78288  0.11757  0.98045  1.0000
  O   O30       1.0  0.21712  0.61757  0.51955  1.0000
  O   O31       1.0  0.21712  0.88243  0.01955  1.0000
  O   O32       1.0  0.78288  0.38243  0.48045  1.0000
  O   O33       1.0  0.82357  0.29562  0.99940  1.0000
  O   O34       1.0  0.17643  0.79562  0.50060  1.0000
  O   O35       1.0  0.17643  0.70438  0.00060  1.0000
  O   O36       1.0  0.82357  0.20438  0.49940  1.0000
  N   N1        1.0  0.47050  0.19782  0.90065  1.0000
  N   N2        1.0  0.52950  0.69782  0.59935  1.0000
  N   N3        1.0  0.52950  0.80218  0.09935  1.0000
  N   N4        1.0  0.47050  0.30218  0.40065  1.0000
  N   N5        1.0  0.38179  0.91489  0.82121  1.0000
  N   N6        1.0  0.61821  0.41489  0.67879  1.0000
  N   N7        1.0  0.61821  0.08511  0.17879  1.0000
  N   N8        1.0  0.38179  0.58511  0.32121  1.0000
  C   C1        1.0  0.33154  0.33203  0.85642  1.0000
  C   C2        1.0  0.66846  0.83203  0.64358  1.0000
  C   C3        1.0  0.66846  0.66797  0.14358  1.0000
  C   C4        1.0  0.33154  0.16797  0.35642  1.0000
  C   C5        1.0  0.44447  0.30611  0.89426  1.0000
  C   C6        1.0  0.55553  0.80611  0.60574  1.0000
  C   C7        1.0  0.55553  0.69389  0.10574  1.0000
  C   C8        1.0  0.44447  0.19389  0.39426  1.0000
  C   C9        1.0  0.51656  0.38987  0.91768  1.0000
  C   C10       1.0  0.48344  0.88987  0.58232  1.0000
  C   C11       1.0  0.48344  0.61013  0.08232  1.0000
  C   C12       1.0  0.51656  0.11013  0.41768  1.0000
  H   H1        1.0  0.49620  0.46410  0.91340  1.0000
  H   H2        1.0  0.50380  0.96410  0.58660  1.0000
  H   H3        1.0  0.50380  0.53590  0.08660  1.0000
  H   H4        1.0  0.49620  0.03590  0.41340  1.0000
  C   C13       1.0  0.61923  0.36223  0.94746  1.0000
  C   C14       1.0  0.38077  0.86223  0.55254  1.0000
  C   C15       1.0  0.38077  0.63777  0.05254  1.0000
  C   C16       1.0  0.61923  0.13777  0.44746  1.0000
  H   H5        1.0  0.66880  0.41780  0.96240  1.0000
  H   H6        1.0  0.33120  0.91780  0.53760  1.0000
  H   H7        1.0  0.33120  0.58220  0.03760  1.0000
  H   H8        1.0  0.66880  0.08220  0.46240  1.0000
  C   C17       1.0  0.64764  0.25142  0.95490  1.0000
  C   C18       1.0  0.35236  0.75142  0.54510  1.0000
  C   C19       1.0  0.35236  0.74858  0.04510  1.0000
  C   C20       1.0  0.64764  0.24858  0.45490  1.0000
  C   C21       1.0  0.57019  0.17240  0.93141  1.0000
  C   C22       1.0  0.42981  0.67240  0.56859  1.0000
  C   C23       1.0  0.42981  0.82760  0.06859  1.0000
  C   C24       1.0  0.57019  0.32760  0.43141  1.0000
  H   H9        1.0  0.58850  0.09760  0.93740  1.0000
  H   H10       1.0  0.41150  0.59760  0.56260  1.0000
  H   H11       1.0  0.41150  0.90240  0.06260  1.0000
  H   H12       1.0  0.58850  0.40240  0.43740  1.0000
  C   C25       1.0  0.75976  0.21761  0.98141  1.0000
  C   C26       1.0  0.24024  0.71761  0.51859  1.0000
  C   C27       1.0  0.24024  0.78239  0.01859  1.0000
  C   C28       1.0  0.75976  0.28239  0.48141  1.0000
  C   C29       1.0  0.19578  0.90713  0.76279  1.0000
  C   C30       1.0  0.80422  0.40713  0.73721  1.0000
  C   C31       1.0  0.80422  0.09287  0.23721  1.0000
  C   C32       1.0  0.19578  0.59287  0.26279  1.0000
  C   C33       1.0  0.29987  0.84904  0.79045  1.0000
  C   C34       1.0  0.70013  0.34904  0.70955  1.0000
  C   C35       1.0  0.70013  0.15096  0.20955  1.0000
  C   C36       1.0  0.29987  0.65096  0.29045  1.0000
  C   C37       1.0  0.30853  0.73517  0.78144  1.0000
  C   C38       1.0  0.69147  0.23517  0.71856  1.0000
  C   C39       1.0  0.69147  0.26483  0.21856  1.0000
  C   C40       1.0  0.30853  0.76483  0.28144  1.0000
  H   H13       1.0  0.25000  0.69130  0.76300  1.0000
  H   H14       1.0  0.75000  0.19130  0.73700  1.0000
  H   H15       1.0  0.75000  0.30870  0.23700  1.0000
  H   H16       1.0  0.25000  0.80870  0.26300  1.0000
  C   C41       1.0  0.40526  0.68726  0.80015  1.0000
  C   C42       1.0  0.59474  0.18726  0.69985  1.0000
  C   C43       1.0  0.59474  0.31274  0.19985  1.0000
  C   C44       1.0  0.40526  0.81274  0.30015  1.0000
  H   H17       1.0  0.41280  0.61090  0.79270  1.0000
  H   H18       1.0  0.58720  0.11090  0.70730  1.0000
  H   H19       1.0  0.58720  0.38910  0.20730  1.0000
  H   H20       1.0  0.41280  0.88910  0.29270  1.0000
  C   C45       1.0  0.49103  0.75413  0.83019  1.0000
  C   C46       1.0  0.50897  0.25413  0.66981  1.0000
  C   C47       1.0  0.50897  0.24587  0.16981  1.0000
  C   C48       1.0  0.49103  0.74587  0.33019  1.0000
  C   C49       1.0  0.47480  0.86758  0.84091  1.0000
  C   C50       1.0  0.52520  0.36758  0.65909  1.0000
  C   C51       1.0  0.52520  0.13242  0.15909  1.0000
  C   C52       1.0  0.47480  0.63242  0.34091  1.0000
  H   H21       1.0  0.53170  0.91270  0.86290  1.0000
  H   H22       1.0  0.46830  0.41270  0.63710  1.0000
  H   H23       1.0  0.46830  0.08730  0.13710  1.0000
  H   H24       1.0  0.53170  0.58730  0.36290  1.0000
  C   C53       1.0  0.59928  0.70831  0.84606  1.0000
  C   C54       1.0  0.40072  0.20831  0.65394  1.0000
  C   C55       1.0  0.40072  0.29169  0.15394  1.0000
  C   C56       1.0  0.59928  0.79169  0.34606  1.0000
  H   H25       1.0  0.31900  0.11700  0.02610  1.0000
  H   H26       1.0  0.68100  0.61700  0.47390  1.0000
  H   H27       1.0  0.68100  0.88300  0.97390  1.0000
  H   H28       1.0  0.31900  0.38300  0.52610  1.0000
  H   H29       1.0  0.28100  0.99690  0.99100  1.0000
  H   H30       1.0  0.71900  0.49690  0.50900  1.0000
  H   H31       1.0  0.71900  0.00310  0.00900  1.0000
  H   H32       1.0  0.28100  0.50310  0.49100  1.0000
