data_image0
_chemical_formula_structural       C6H2C2H2C4H2C2H2C8H2C2H2C4H2C2H2C8H2C2H2C4H2C2H2C8H2C2H2C4H2C2H2C12H2C2H2C4H2C2H2C8H2C2H2C4H2C2H2C8H2C2H2C4H2C2H2C8H2C2H2C4H2C2H2C6In4O32S16
_chemical_formula_sum              "C136 H64 In4 O32 S16"
_cell_length_a       12.1284
_cell_length_b       15.2917
_cell_length_c       30.6531
_cell_angle_alpha    83.195
_cell_angle_beta     88.22
_cell_angle_gamma    88.062

_space_group_name_H-M_alt    "P 1"
_space_group_IT_number       1

loop_
  _space_group_symop_operation_xyz
  'x, y, z'

loop_
  _atom_site_type_symbol
  _atom_site_label
  _atom_site_symmetry_multiplicity
  _atom_site_fract_x
  _atom_site_fract_y
  _atom_site_fract_z
  _atom_site_occupancy
  C   C1        1.0  0.67330  0.05650  0.00742  1.0000
  C   C2        1.0  0.32670  0.94350  0.99258  1.0000
  C   C3        1.0  0.74070  0.98800  0.03324  1.0000
  C   C4        1.0  0.25930  0.01200  0.96676  1.0000
  C   C5        1.0  0.70280  0.90660  0.05047  1.0000
  C   C6        1.0  0.29720  0.09340  0.94953  1.0000
  H   H1        1.0  0.63198  0.88928  0.04297  1.0000
  H   H2        1.0  0.36802  0.11072  0.95703  1.0000
  C   C7        1.0  0.76670  0.85040  0.07846  1.0000
  C   C8        1.0  0.23330  0.14960  0.92154  1.0000
  H   H3        1.0  0.73951  0.79471  0.09023  1.0000
  H   H4        1.0  0.26049  0.20529  0.90977  1.0000
  C   C9        1.0  0.86960  0.87420  0.08947  1.0000
  C   C10       1.0  0.13040  0.12580  0.91053  1.0000
  C   C11       1.0  0.90940  0.95530  0.07159  1.0000
  C   C12       1.0  0.09060  0.04470  0.92841  1.0000
  H   H5        1.0  0.98088  0.97188  0.07868  1.0000
  H   H6        1.0  0.01912  0.02812  0.92132  1.0000
  C   C13       1.0  0.84550  0.01160  0.04359  1.0000
  C   C14       1.0  0.15450  0.98840  0.95641  1.0000
  H   H7        1.0  0.87328  0.06674  0.03132  1.0000
  H   H8        1.0  0.12672  0.93326  0.96868  1.0000
  C   C15       1.0  0.93340  0.81620  0.12257  1.0000
  C   C16       1.0  0.06660  0.18380  0.87743  1.0000
  C   C17       1.0  0.66880  0.06610  0.96180  1.0000
  C   C18       1.0  0.33120  0.93390  0.03820  1.0000
  C   C19       1.0  0.72440  0.00950  0.93343  1.0000
  C   C20       1.0  0.27560  0.99050  0.06657  1.0000
  C   C21       1.0  0.71750  0.91750  0.94022  1.0000
  C   C22       1.0  0.28250  0.08250  0.05978  1.0000
  H   H9        1.0  0.67504  0.89079  0.96444  1.0000
  H   H10       1.0  0.32496  0.10921  0.03556  1.0000
  C   C23       1.0  0.77170  0.86540  0.91220  1.0000
  C   C24       1.0  0.22830  0.13460  0.08780  1.0000
  H   H11       1.0  0.76467  0.80325  0.91684  1.0000
  H   H12       1.0  0.23533  0.19675  0.08316  1.0000
  C   C25       1.0  0.83650  0.90290  0.87719  1.0000
  C   C26       1.0  0.16350  0.09710  0.12281  1.0000
  C   C27       1.0  0.84390  0.99530  0.86895  1.0000
  C   C28       1.0  0.15610  0.00470  0.13105  1.0000
  H   H13       1.0  0.88764  0.02128  0.84493  1.0000
  H   H14       1.0  0.11236  0.97872  0.15507  1.0000
  C   C29       1.0  0.78640  0.04770  0.89637  1.0000
  C   C30       1.0  0.21360  0.95230  0.10363  1.0000
  H   H15       1.0  0.78847  0.10998  0.89029  1.0000
  H   H16       1.0  0.21153  0.89002  0.10971  1.0000
  C   C31       1.0  0.89700  0.84940  0.84665  1.0000
  C   C32       1.0  0.10300  0.15060  0.15335  1.0000
  C   C33       1.0  0.35930  0.39730  0.01368  1.0000
  C   C34       1.0  0.64070  0.60270  0.98632  1.0000
  C   C35       1.0  0.30630  0.45520  0.04378  1.0000
  C   C36       1.0  0.69370  0.54480  0.95622  1.0000
  C   C37       1.0  0.22050  0.42350  0.07388  1.0000
  C   C38       1.0  0.77950  0.57650  0.92612  1.0000
  H   H17       1.0  0.19582  0.36522  0.07396  1.0000
  H   H18       1.0  0.80418  0.63478  0.92604  1.0000
  C   C39       1.0  0.17430  0.47630  0.10232  1.0000
  C   C40       1.0  0.82570  0.52370  0.89768  1.0000
  H   H19       1.0  0.11598  0.45423  0.12149  1.0000
  H   H20       1.0  0.88402  0.54577  0.87851  1.0000
  C   C41       1.0  0.20860  0.56120  0.10462  1.0000
  C   C42       1.0  0.79140  0.43880  0.89538  1.0000
  C   C43       1.0  0.29390  0.59260  0.07644  1.0000
  C   C44       1.0  0.70610  0.40740  0.92356  1.0000
  H   H21       1.0  0.31940  0.65023  0.07773  1.0000
  H   H22       1.0  0.68060  0.34977  0.92227  1.0000
  C   C45       1.0  0.34360  0.53950  0.04564  1.0000
  C   C46       1.0  0.65640  0.46050  0.95436  1.0000
  H   H23       1.0  0.40189  0.56163  0.02649  1.0000
  H   H24       1.0  0.59811  0.43837  0.97351  1.0000
  C   C47       1.0  0.15410  0.61790  0.13484  1.0000
  C   C48       1.0  0.84590  0.38210  0.86516  1.0000
  C   C49       1.0  0.35270  0.40440  0.96834  1.0000
  C   C50       1.0  0.64730  0.59560  0.03166  1.0000
  C   C51       1.0  0.28550  0.46770  0.93992  1.0000
  C   C52       1.0  0.71450  0.53230  0.06008  1.0000
  C   C53       1.0  0.31860  0.55450  0.92872  1.0000
  C   C54       1.0  0.68140  0.44550  0.07128  1.0000
  H   H25       1.0  0.38336  0.57373  0.94087  1.0000
  H   H26       1.0  0.61664  0.42627  0.05913  1.0000
  C   C55       1.0  0.25710  0.61310  0.89984  1.0000
  C   C56       1.0  0.74290  0.38690  0.10016  1.0000
  H   H27       1.0  0.27784  0.67277  0.89392  1.0000
  H   H28       1.0  0.72216  0.32723  0.10608  1.0000
  C   C57       1.0  0.16690  0.58510  0.87994  1.0000
  C   C58       1.0  0.83310  0.41490  0.12006  1.0000
  C   C59       1.0  0.13460  0.49740  0.88973  1.0000
  C   C60       1.0  0.86540  0.50260  0.11027  1.0000
  H   H29       1.0  0.07086  0.47807  0.87688  1.0000
  H   H30       1.0  0.92914  0.52193  0.12312  1.0000
  C   C61       1.0  0.19610  0.43910  0.91819  1.0000
  C   C62       1.0  0.80390  0.56090  0.08181  1.0000
  H   H31       1.0  0.17730  0.37881  0.92299  1.0000
  H   H32       1.0  0.82270  0.62119  0.07701  1.0000
  C   C63       1.0  0.10360  0.64620  0.84712  1.0000
  C   C64       1.0  0.89640  0.35380  0.15288  1.0000
  C   C65       1.0  0.54800  0.19370  0.98831  1.0000
  C   C66       1.0  0.45200  0.80630  0.01169  1.0000
  C   C67       1.0  0.47670  0.26620  0.98934  1.0000
  C   C68       1.0  0.52330  0.73380  0.01066  1.0000
  C   C69       1.0  0.56140  0.85640  0.58104  1.0000
  C   C70       1.0  0.43860  0.14360  0.41896  1.0000
  C   C71       1.0  0.63170  0.83800  0.62075  1.0000
  C   C72       1.0  0.36830  0.16200  0.37925  1.0000
  C   C73       1.0  0.62350  0.75900  0.64787  1.0000
  C   C74       1.0  0.37650  0.24100  0.35213  1.0000
  H   H33       1.0  0.56945  0.71822  0.64271  1.0000
  H   H34       1.0  0.43055  0.28178  0.35729  1.0000
  C   C75       1.0  0.69480  0.73980  0.68268  1.0000
  C   C76       1.0  0.30520  0.26020  0.31732  1.0000
  H   H35       1.0  0.68915  0.68579  0.70128  1.0000
  H   H36       1.0  0.31085  0.31421  0.29872  1.0000
  C   C77       1.0  0.77380  0.79900  0.69034  1.0000
  C   C78       1.0  0.22620  0.20100  0.30966  1.0000
  C   C79       1.0  0.78250  0.87680  0.66320  1.0000
  C   C80       1.0  0.21750  0.12320  0.33680  1.0000
  H   H37       1.0  0.83742  0.91706  0.66821  1.0000
  H   H38       1.0  0.16258  0.08294  0.33179  1.0000
  C   C81       1.0  0.71160  0.89720  0.62854  1.0000
  C   C82       1.0  0.28840  0.10280  0.37146  1.0000
  H   H39       1.0  0.71759  0.95143  0.61013  1.0000
  H   H40       1.0  0.28241  0.04857  0.38987  1.0000
  C   C83       1.0  0.85110  0.78690  0.72703  1.0000
  C   C84       1.0  0.14890  0.21310  0.27297  1.0000
  C   C85       1.0  0.44570  0.85590  0.58041  1.0000
  C   C86       1.0  0.55430  0.14410  0.41959  1.0000
  C   C87       1.0  0.36950  0.83200  0.62012  1.0000
  C   C88       1.0  0.63050  0.16800  0.37988  1.0000
  C   C89       1.0  0.37380  0.88640  0.65484  1.0000
  C   C90       1.0  0.62620  0.11360  0.34516  1.0000
  H   H41       1.0  0.42469  0.93269  0.65292  1.0000
  H   H42       1.0  0.57531  0.06731  0.34708  1.0000
  C   C91       1.0  0.30250  0.87110  0.69192  1.0000
  C   C92       1.0  0.69750  0.12890  0.30808  1.0000
  H   H43       1.0  0.30462  0.90492  0.71593  1.0000
  H   H44       1.0  0.69538  0.09508  0.28407  1.0000
  C   C93       1.0  0.22680  0.80170  0.69129  1.0000
  C   C94       1.0  0.77320  0.19830  0.30871  1.0000
  C   C95       1.0  0.22520  0.75020  0.65877  1.0000
  C   C96       1.0  0.77480  0.24980  0.34123  1.0000
  H   H45       1.0  0.17654  0.70245  0.66053  1.0000
  H   H46       1.0  0.82346  0.29755  0.33947  1.0000
  C   C97       1.0  0.29850  0.76850  0.62113  1.0000
  C   C98       1.0  0.70150  0.23150  0.37887  1.0000
  H   H47       1.0  0.29563  0.73479  0.59710  1.0000
  H   H48       1.0  0.70437  0.26521  0.40290  1.0000
  C   C99       1.0  0.14800  0.78030  0.73032  1.0000
  C   C100      1.0  0.85200  0.21970  0.26968  1.0000
  C   C101      1.0  0.46860  0.82810  0.38116  1.0000
  C   C102      1.0  0.53140  0.17190  0.61884  1.0000
  C   C103      1.0  0.41260  0.79660  0.34314  1.0000
  C   C104      1.0  0.58740  0.20340  0.65686  1.0000
  C   C105      1.0  0.40710  0.85420  0.30449  1.0000
  C   C106      1.0  0.59290  0.14580  0.69551  1.0000
  H   H49       1.0  0.44945  0.90580  0.30085  1.0000
  H   H50       1.0  0.55055  0.09420  0.69915  1.0000
  C   C107      1.0  0.33920  0.83570  0.27126  1.0000
  C   C108      1.0  0.66080  0.16430  0.72874  1.0000
  H   H51       1.0  0.33529  0.87542  0.24501  1.0000
  H   H52       1.0  0.66471  0.12458  0.75499  1.0000
  C   C109      1.0  0.27760  0.76120  0.27561  1.0000
  C   C110      1.0  0.72240  0.23880  0.72439  1.0000
  C   C111      1.0  0.28400  0.70270  0.31514  1.0000
  C   C112      1.0  0.71600  0.29730  0.68486  1.0000
  H   H53       1.0  0.24177  0.65104  0.31890  1.0000
  H   H54       1.0  0.75823  0.34896  0.68110  1.0000
  C   C113      1.0  0.35150  0.72110  0.34802  1.0000
  C   C114      1.0  0.64850  0.27890  0.65198  1.0000
  H   H55       1.0  0.35612  0.68158  0.37430  1.0000
  H   H56       1.0  0.64388  0.31842  0.62570  1.0000
  C   C115      1.0  0.20450  0.74200  0.23992  1.0000
  C   C116      1.0  0.79550  0.25800  0.76008  1.0000
  C   C117      1.0  0.58280  0.83830  0.37878  1.0000
  C   C118      1.0  0.41720  0.16170  0.62122  1.0000
  C   C119      1.0  0.66060  0.82840  0.34200  1.0000
  C   C120      1.0  0.33940  0.17160  0.65800  1.0000
  C   C121      1.0  0.68320  0.88200  0.30491  1.0000
  C   C122      1.0  0.31680  0.11800  0.69509  1.0000
  H   H57       1.0  0.65194  0.94016  0.30095  1.0000
  H   H58       1.0  0.34806  0.05984  0.69905  1.0000
  C   C123      1.0  0.75010  0.85300  0.27346  1.0000
  C   C124      1.0  0.24990  0.14700  0.72654  1.0000
  H   H59       1.0  0.75572  0.88915  0.24610  1.0000
  H   H60       1.0  0.24428  0.11085  0.75390  1.0000
  C   C125      1.0  0.81160  0.77410  0.27801  1.0000
  C   C126      1.0  0.18840  0.22590  0.72199  1.0000
  C   C127      1.0  0.79560  0.72310  0.31877  1.0000
  C   C128      1.0  0.20440  0.27690  0.68123  1.0000
  H   H61       1.0  0.83893  0.67058  0.32535  1.0000
  H   H62       1.0  0.16107  0.32942  0.67465  1.0000
  C   C129      1.0  0.71790  0.74750  0.34975  1.0000
  C   C130      1.0  0.28210  0.25250  0.65025  1.0000
  H   H63       1.0  0.70388  0.70947  0.37600  1.0000
  H   H64       1.0  0.29612  0.29053  0.62400  1.0000
  C   C131      1.0  0.89650  0.75060  0.24530  1.0000
  C   C132      1.0  0.10350  0.24940  0.75470  1.0000
  C   C133      1.0  0.50840  0.88260  0.49959  1.0000
  C   C134      1.0  0.49160  0.11740  0.50041  1.0000
  C   C135      1.0  0.51410  0.88170  0.45576  1.0000
  C   C136      1.0  0.48590  0.11830  0.54424  1.0000
  In  In1       1.0  0.05334  0.72920  0.18400  1.0000
  In  In2       1.0  0.94666  0.27080  0.81600  1.0000
  In  In3       1.0  0.99510  0.75697  0.79081  1.0000
  In  In4       1.0  0.00490  0.24303  0.20919  1.0000
  O   O1        1.0  0.02130  0.84533  0.13609  1.0000
  O   O2        1.0  0.97870  0.15467  0.86391  1.0000
  O   O3        1.0  0.90420  0.74049  0.13679  1.0000
  O   O4        1.0  0.09580  0.25951  0.86321  1.0000
  O   O5        1.0  0.87290  0.77055  0.84768  1.0000
  O   O6        1.0  0.12710  0.22945  0.15232  1.0000
  O   O7        1.0  0.96950  0.88246  0.82060  1.0000
  O   O8        1.0  0.03050  0.11754  0.17940  1.0000
  O   O9        1.0  0.07410  0.59485  0.15960  1.0000
  O   O10       1.0  0.92590  0.40515  0.84040  1.0000
  O   O11       1.0  0.18600  0.69711  0.13523  1.0000
  O   O12       1.0  0.81400  0.30289  0.86477  1.0000
  O   O13       1.0  0.12940  0.72531  0.84089  1.0000
  O   O14       1.0  0.87060  0.27469  0.15911  1.0000
  O   O15       1.0  0.02790  0.61951  0.82642  1.0000
  O   O16       1.0  0.97210  0.38049  0.17358  1.0000
  O   O17       1.0  0.85160  0.71370  0.75042  1.0000
  O   O18       1.0  0.14840  0.28630  0.24958  1.0000
  O   O19       1.0  0.91560  0.84340  0.73629  1.0000
  O   O20       1.0  0.08440  0.15660  0.26371  1.0000
  O   O21       1.0  0.13510  0.83903  0.75508  1.0000
  O   O22       1.0  0.86490  0.16097  0.24492  1.0000
  O   O23       1.0  0.09730  0.70850  0.73615  1.0000
  O   O24       1.0  0.90270  0.29150  0.26385  1.0000
  O   O25       1.0  0.19100  0.80420  0.20937  1.0000
  O   O26       1.0  0.80900  0.19580  0.79063  1.0000
  O   O27       1.0  0.15200  0.67200  0.24133  1.0000
  O   O28       1.0  0.84800  0.32800  0.75867  1.0000
  O   O29       1.0  0.94870  0.81290  0.22600  1.0000
  O   O30       1.0  0.05130  0.18710  0.77400  1.0000
  O   O31       1.0  0.90450  0.67480  0.23576  1.0000
  O   O32       1.0  0.09550  0.32520  0.76424  1.0000
  S   S1        1.0  0.59986  0.13408  0.03585  1.0000
  S   S2        1.0  0.40014  0.86592  0.96415  1.0000
  S   S3        1.0  0.59151  0.15709  0.93847  1.0000
  S   S4        1.0  0.40849  0.84291  0.06153  1.0000
  S   S5        1.0  0.43934  0.30988  0.03812  1.0000
  S   S6        1.0  0.56066  0.69012  0.96188  1.0000
  S   S7        1.0  0.42270  0.32275  0.94172  1.0000
  S   S8        1.0  0.57730  0.67725  0.05828  1.0000
  S   S9        1.0  0.62455  0.89261  0.53049  1.0000
  S   S10       1.0  0.37545  0.10739  0.46951  1.0000
  S   S11       1.0  0.38422  0.87994  0.52975  1.0000
  S   S12       1.0  0.61578  0.12006  0.47025  1.0000
  S   S13       1.0  0.39520  0.86810  0.42593  1.0000
  S   S14       1.0  0.60480  0.13190  0.57407  1.0000
  S   S15       1.0  0.63605  0.88417  0.42348  1.0000
  S   S16       1.0  0.36395  0.11583  0.57652  1.0000
