data_image0
_chemical_formula_structural       C6H2C2H2C4H2C2H2C8H2C2H2C4H2C2H2C14H2C2H2C4H2C2H2C6H2C2H2C4H2C2H2C8H2C2H2C4H2C2H2C8H2C2H2C4H2C2H2C14H2C2H2C4H2C2H2C6H2C2H2C4H2C2H2C2In4O32S16
_chemical_formula_sum              "C136 H64 In4 O32 S16"
_cell_length_a       12.1632
_cell_length_b       15.3236
_cell_length_c       30.622
_cell_angle_alpha    83.6933
_cell_angle_beta     88.53
_cell_angle_gamma    87.9124

_space_group_name_H-M_alt    "P 1"
_space_group_IT_number       1

loop_
  _space_group_symop_operation_xyz
  'x, y, z'

loop_
  _atom_site_type_symbol
  _atom_site_label
  _atom_site_symmetry_multiplicity
  _atom_site_fract_x
  _atom_site_fract_y
  _atom_site_fract_z
  _atom_site_occupancy
  C   C1        1.0  0.79530  0.24290  0.26425  1.0000
  C   C2        1.0  0.20470  0.75710  0.73575  1.0000
  C   C3        1.0  0.72650  0.23060  0.22595  1.0000
  C   C4        1.0  0.27350  0.76940  0.77405  1.0000
  C   C5        1.0  0.65710  0.15910  0.22968  1.0000
  C   C6        1.0  0.34290  0.84090  0.77032  1.0000
  H   H1        1.0  0.65338  0.12168  0.25652  1.0000
  H   H2        1.0  0.34662  0.87832  0.74348  1.0000
  C   C7        1.0  0.59470  0.14230  0.19521  1.0000
  C   C8        1.0  0.40530  0.85770  0.80479  1.0000
  H   H3        1.0  0.54900  0.09300  0.19815  1.0000
  H   H4        1.0  0.45100  0.90700  0.80185  1.0000
  C   C9        1.0  0.59790  0.19790  0.15533  1.0000
  C   C10       1.0  0.40210  0.80210  0.84467  1.0000
  C   C11       1.0  0.66540  0.26870  0.15151  1.0000
  C   C12       1.0  0.33460  0.73130  0.84849  1.0000
  H   H5        1.0  0.66974  0.30506  0.12437  1.0000
  H   H6        1.0  0.33026  0.69494  0.87563  1.0000
  C   C13       1.0  0.72720  0.28800  0.18651  1.0000
  C   C14       1.0  0.27280  0.71200  0.81349  1.0000
  H   H7        1.0  0.76949  0.33929  0.18398  1.0000
  H   H8        1.0  0.23051  0.66071  0.81602  1.0000
  C   C15       1.0  0.52780  0.16710  0.12058  1.0000
  C   C16       1.0  0.47220  0.83290  0.87942  1.0000
  C   C17       1.0  0.41610  0.15910  0.11886  1.0000
  C   C18       1.0  0.58390  0.84090  0.88114  1.0000
  C   C19       1.0  0.33770  0.18860  0.15412  1.0000
  C   C20       1.0  0.66230  0.81140  0.84588  1.0000
  C   C21       1.0  0.33510  0.27060  0.16793  1.0000
  C   C22       1.0  0.66490  0.72940  0.83207  1.0000
  H   H9        1.0  0.38098  0.31441  0.15371  1.0000
  H   H10       1.0  0.61902  0.68559  0.84629  1.0000
  C   C23       1.0  0.26520  0.29040  0.20301  1.0000
  C   C24       1.0  0.73480  0.70960  0.79699  1.0000
  H   H11       1.0  0.26329  0.34729  0.21269  1.0000
  H   H12       1.0  0.73671  0.65271  0.78731  1.0000
  C   C25       1.0  0.19840  0.22460  0.22339  1.0000
  C   C26       1.0  0.80160  0.77540  0.77661  1.0000
  C   C27       1.0  0.20100  0.14260  0.20922  1.0000
  C   C28       1.0  0.79900  0.85740  0.79078  1.0000
  H   H13       1.0  0.15468  0.09861  0.22302  1.0000
  H   H14       1.0  0.84532  0.90139  0.77698  1.0000
  C   C29       1.0  0.27170  0.12370  0.17444  1.0000
  C   C30       1.0  0.72830  0.87630  0.82556  1.0000
  H   H15       1.0  0.27442  0.06674  0.16485  1.0000
  H   H16       1.0  0.72558  0.93326  0.83515  1.0000
  C   C31       1.0  0.11800  0.24200  0.25792  1.0000
  C   C32       1.0  0.88200  0.75800  0.74208  1.0000
  C   C33       1.0  0.49950  0.12210  0.04500  1.0000
  C   C34       1.0  0.50050  0.87790  0.95500  1.0000
  C   C35       1.0  0.49220  0.11380  0.00151  1.0000
  C   C36       1.0  0.50780  0.88620  0.99849  1.0000
  C   C37       1.0  0.44260  0.13040  0.91858  1.0000
  C   C38       1.0  0.55740  0.86960  0.08142  1.0000
  C   C39       1.0  0.55760  0.14370  0.91916  1.0000
  C   C40       1.0  0.44240  0.85630  0.08084  1.0000
  C   C41       1.0  0.62830  0.16700  0.87985  1.0000
  C   C42       1.0  0.37170  0.83300  0.12015  1.0000
  C   C43       1.0  0.70110  0.23350  0.87804  1.0000
  C   C44       1.0  0.29890  0.76650  0.12196  1.0000
  H   H17       1.0  0.70246  0.26865  0.90170  1.0000
  H   H18       1.0  0.29754  0.73135  0.09830  1.0000
  C   C45       1.0  0.77410  0.25100  0.84181  1.0000
  C   C46       1.0  0.22590  0.74900  0.15819  1.0000
  H   H19       1.0  0.82418  0.29739  0.84085  1.0000
  H   H20       1.0  0.17582  0.70261  0.15915  1.0000
  C   C47       1.0  0.77100  0.19870  0.80763  1.0000
  C   C48       1.0  0.22900  0.80130  0.19237  1.0000
  C   C49       1.0  0.69980  0.13010  0.80972  1.0000
  C   C50       1.0  0.30020  0.86990  0.19028  1.0000
  H   H21       1.0  0.70091  0.09258  0.78697  1.0000
  H   H22       1.0  0.29909  0.90742  0.21303  1.0000
  C   C51       1.0  0.62600  0.11590  0.84546  1.0000
  C   C52       1.0  0.37400  0.88410  0.15454  1.0000
  H   H23       1.0  0.57412  0.07087  0.84605  1.0000
  H   H24       1.0  0.42588  0.92913  0.15395  1.0000
  C   C53       1.0  0.85530  0.22130  0.77124  1.0000
  C   C54       1.0  0.14470  0.77870  0.22876  1.0000
  C   C55       1.0  0.37150  0.16250  0.88046  1.0000
  C   C56       1.0  0.62850  0.83750  0.11954  1.0000
  C   C57       1.0  0.29580  0.10320  0.87236  1.0000
  C   C58       1.0  0.70420  0.89680  0.12764  1.0000
  H   H25       1.0  0.29073  0.04928  0.89071  1.0000
  H   H26       1.0  0.70927  0.95072  0.10929  1.0000
  C   C59       1.0  0.22560  0.12220  0.83695  1.0000
  C   C60       1.0  0.77440  0.87780  0.16305  1.0000
  H   H27       1.0  0.17334  0.08040  0.83133  1.0000
  H   H28       1.0  0.82666  0.91960  0.16867  1.0000
  C   C61       1.0  0.23040  0.20000  0.81004  1.0000
  C   C62       1.0  0.76960  0.80000  0.18996  1.0000
  C   C63       1.0  0.30700  0.26100  0.81920  1.0000
  C   C64       1.0  0.69300  0.73900  0.18080  1.0000
  H   H29       1.0  0.31003  0.31580  0.80144  1.0000
  H   H30       1.0  0.68997  0.68420  0.19856  1.0000
  C   C65       1.0  0.37920  0.24270  0.85405  1.0000
  C   C66       1.0  0.62080  0.75730  0.14595  1.0000
  H   H31       1.0  0.43226  0.28375  0.85969  1.0000
  H   H32       1.0  0.56774  0.71625  0.14031  1.0000
  C   C67       1.0  0.15850  0.21680  0.77109  1.0000
  C   C68       1.0  0.84150  0.78320  0.22891  1.0000
  C   C69       1.0  0.84580  0.38020  0.36488  1.0000
  C   C70       1.0  0.15420  0.61980  0.63512  1.0000
  C   C71       1.0  0.79350  0.44000  0.39671  1.0000
  C   C72       1.0  0.20650  0.56000  0.60329  1.0000
  C   C73       1.0  0.70780  0.40670  0.42386  1.0000
  C   C74       1.0  0.29220  0.59330  0.57614  1.0000
  H   H33       1.0  0.68238  0.34941  0.42186  1.0000
  H   H34       1.0  0.31762  0.65059  0.57814  1.0000
  C   C75       1.0  0.65970  0.46010  0.45442  1.0000
  C   C76       1.0  0.34030  0.53990  0.54558  1.0000
  H   H35       1.0  0.60210  0.43844  0.47374  1.0000
  H   H36       1.0  0.39790  0.56156  0.52626  1.0000
  C   C77       1.0  0.69680  0.54480  0.45623  1.0000
  C   C78       1.0  0.30320  0.45520  0.54377  1.0000
  C   C79       1.0  0.78090  0.57710  0.42826  1.0000
  C   C80       1.0  0.21910  0.42290  0.57174  1.0000
  H   H37       1.0  0.80573  0.63480  0.42950  1.0000
  H   H38       1.0  0.19427  0.36520  0.57050  1.0000
  C   C81       1.0  0.82870  0.52380  0.39822  1.0000
  C   C82       1.0  0.17130  0.47620  0.60178  1.0000
  H   H39       1.0  0.88589  0.54567  0.37875  1.0000
  H   H40       1.0  0.11411  0.45433  0.62125  1.0000
  C   C83       1.0  0.64310  0.60360  0.48678  1.0000
  C   C84       1.0  0.35690  0.39640  0.51322  1.0000
  C   C85       1.0  0.64920  0.59490  0.53388  1.0000
  C   C86       1.0  0.35080  0.40510  0.46612  1.0000
  C   C87       1.0  0.71710  0.53130  0.56233  1.0000
  C   C88       1.0  0.28290  0.46870  0.43767  1.0000
  C   C89       1.0  0.69680  0.44260  0.56644  1.0000
  C   C90       1.0  0.30320  0.55740  0.43356  1.0000
  H   H41       1.0  0.64271  0.42097  0.54894  1.0000
  H   H42       1.0  0.35729  0.57903  0.45106  1.0000
  C   C91       1.0  0.75530  0.38550  0.59607  1.0000
  C   C92       1.0  0.24470  0.61450  0.40393  1.0000
  H   H43       1.0  0.73988  0.32481  0.59930  1.0000
  H   H44       1.0  0.26012  0.67519  0.40070  1.0000
  C   C93       1.0  0.83740  0.41620  0.62157  1.0000
  C   C94       1.0  0.16260  0.58380  0.37843  1.0000
  C   C95       1.0  0.85700  0.50540  0.61698  1.0000
  C   C96       1.0  0.14300  0.49460  0.38302  1.0000
  H   H45       1.0  0.91236  0.52719  0.63384  1.0000
  H   H46       1.0  0.08764  0.47281  0.36616  1.0000
  C   C97       1.0  0.79670  0.56300  0.58802  1.0000
  C   C98       1.0  0.20330  0.43700  0.41198  1.0000
  H   H47       1.0  0.80942  0.62412  0.58564  1.0000
  H   H48       1.0  0.19058  0.37588  0.41436  1.0000
  C   C99       1.0  0.89780  0.35090  0.65349  1.0000
  C   C100      1.0  0.10220  0.64910  0.34651  1.0000
  C   C101      1.0  0.52190  0.73380  0.51127  1.0000
  C   C102      1.0  0.47810  0.26620  0.48873  1.0000
  C   C103      1.0  0.45290  0.80900  0.51152  1.0000
  C   C104      1.0  0.54710  0.19100  0.48848  1.0000
  C   C105      1.0  0.33350  0.94120  0.49158  1.0000
  C   C106      1.0  0.66650  0.05880  0.50842  1.0000
  C   C107      1.0  0.32650  0.93440  0.53729  1.0000
  C   C108      1.0  0.67350  0.06560  0.46271  1.0000
  C   C109      1.0  0.26310  0.00590  0.46468  1.0000
  C   C110      1.0  0.73690  0.99410  0.53532  1.0000
  C   C111      1.0  0.15110  0.99830  0.46387  1.0000
  C   C112      1.0  0.84890  0.00170  0.53613  1.0000
  H   H49       1.0  0.11690  0.95152  0.48147  1.0000
  H   H50       1.0  0.88310  0.04848  0.51853  1.0000
  C   C113      1.0  0.08640  0.06000  0.43686  1.0000
  C   C114      1.0  0.91360  0.94000  0.56314  1.0000
  H   H51       1.0  0.00899  0.05447  0.43557  1.0000
  H   H52       1.0  0.99101  0.94553  0.56443  1.0000
  C   C115      1.0  0.13820  0.12840  0.41242  1.0000
  C   C116      1.0  0.86180  0.87160  0.58758  1.0000
  C   C117      1.0  0.24810  0.13720  0.41317  1.0000
  C   C118      1.0  0.75190  0.86280  0.58683  1.0000
  H   H53       1.0  0.28133  0.18440  0.39554  1.0000
  H   H54       1.0  0.71867  0.81560  0.60446  1.0000
  C   C119      1.0  0.31350  0.07680  0.43993  1.0000
  C   C120      1.0  0.68650  0.92320  0.56007  1.0000
  H   H55       1.0  0.39056  0.08376  0.44125  1.0000
  H   H56       1.0  0.60944  0.91624  0.55875  1.0000
  C   C121      1.0  0.07340  0.18600  0.37747  1.0000
  C   C122      1.0  0.92660  0.81400  0.62253  1.0000
  C   C123      1.0  0.27570  0.98790  0.56699  1.0000
  C   C124      1.0  0.72430  0.01210  0.43301  1.0000
  C   C125      1.0  0.21160  0.95270  0.60131  1.0000
  C   C126      1.0  0.78840  0.04730  0.39869  1.0000
  H   H57       1.0  0.20662  0.89064  0.60638  1.0000
  H   H58       1.0  0.79338  0.10936  0.39362  1.0000
  C   C127      1.0  0.15300  0.00480  0.62914  1.0000
  C   C128      1.0  0.84700  0.99520  0.37086  1.0000
  H   H59       1.0  0.10748  0.97945  0.65248  1.0000
  H   H60       1.0  0.89252  0.02055  0.34752  1.0000
  C   C129      1.0  0.16420  0.09650  0.62123  1.0000
  C   C130      1.0  0.83580  0.90350  0.37877  1.0000
  C   C131      1.0  0.22790  0.13340  0.58604  1.0000
  C   C132      1.0  0.77210  0.86660  0.41396  1.0000
  H   H61       1.0  0.23404  0.19531  0.58096  1.0000
  H   H62       1.0  0.76596  0.80469  0.41904  1.0000
  C   C133      1.0  0.28140  0.08040  0.55889  1.0000
  C   C134      1.0  0.71860  0.91960  0.44111  1.0000
  H   H63       1.0  0.32296  0.10569  0.53431  1.0000
  H   H64       1.0  0.67704  0.89431  0.46569  1.0000
  C   C135      1.0  0.10080  0.15010  0.65235  1.0000
  C   C136      1.0  0.89920  0.84990  0.34765  1.0000
  In  In1       1.0  0.00617  0.24288  0.70905  1.0000
  In  In2       1.0  0.99383  0.75712  0.29095  1.0000
  In  In3       1.0  0.95082  0.27227  0.31731  1.0000
  In  In4       1.0  0.04918  0.72773  0.68269  1.0000
  O   O1        1.0  0.81790  0.18235  0.29294  1.0000
  O   O2        1.0  0.18210  0.81765  0.70706  1.0000
  O   O3        1.0  0.84300  0.31560  0.26035  1.0000
  O   O4        1.0  0.15700  0.68440  0.73965  1.0000
  O   O5        1.0  0.05260  0.18865  0.27694  1.0000
  O   O6        1.0  0.94740  0.81135  0.72306  1.0000
  O   O7        1.0  0.10120  0.32220  0.26630  1.0000
  O   O8        1.0  0.89880  0.67780  0.73370  1.0000
  O   O9        1.0  0.09610  0.16103  0.76248  1.0000
  O   O10       1.0  0.90390  0.83897  0.23752  1.0000
  O   O11       1.0  0.15480  0.29240  0.74767  1.0000
  O   O12       1.0  0.84520  0.70760  0.25233  1.0000
  O   O13       1.0  0.86170  0.16327  0.74490  1.0000
  O   O14       1.0  0.13830  0.83673  0.25510  1.0000
  O   O15       1.0  0.90700  0.28690  0.76582  1.0000
  O   O16       1.0  0.09300  0.71310  0.23418  1.0000
  O   O17       1.0  0.86950  0.27585  0.65803  1.0000
  O   O18       1.0  0.13050  0.72415  0.34197  1.0000
  O   O19       1.0  0.97200  0.37948  0.67562  1.0000
  O   O20       1.0  0.02800  0.62052  0.32438  1.0000
  O   O21       1.0  0.81900  0.30243  0.36716  1.0000
  O   O22       1.0  0.18100  0.69757  0.63284  1.0000
  O   O23       1.0  0.92670  0.40490  0.34040  1.0000
  O   O24       1.0  0.07330  0.59510  0.65960  1.0000
  O   O25       1.0  0.98630  0.15628  0.36476  1.0000
  O   O26       1.0  0.01370  0.84372  0.63524  1.0000
  O   O27       1.0  0.10390  0.26183  0.36302  1.0000
  O   O28       1.0  0.89610  0.73817  0.63698  1.0000
  O   O29       1.0  0.02780  0.11628  0.67881  1.0000
  O   O30       1.0  0.97220  0.88372  0.32119  1.0000
  O   O31       1.0  0.13590  0.22929  0.65122  1.0000
  O   O32       1.0  0.86410  0.77071  0.34878  1.0000
  S   S1        1.0  0.36989  0.11795  0.07221  1.0000
  S   S2        1.0  0.63011  0.88205  0.92779  1.0000
  S   S3        1.0  0.61213  0.13521  0.07834  1.0000
  S   S4        1.0  0.38787  0.86479  0.92166  1.0000
  S   S5        1.0  0.37540  0.10770  0.96926  1.0000
  S   S6        1.0  0.62460  0.89230  0.03074  1.0000
  S   S7        1.0  0.61666  0.11754  0.97063  1.0000
  S   S8        1.0  0.38334  0.88246  0.02937  1.0000
  S   S9        1.0  0.58040  0.67836  0.55872  1.0000
  S   S10       1.0  0.41960  0.32164  0.44128  1.0000
  S   S11       1.0  0.56555  0.69251  0.46191  1.0000
  S   S12       1.0  0.43445  0.30749  0.53809  1.0000
  S   S13       1.0  0.40774  0.84390  0.56168  1.0000
  S   S14       1.0  0.59226  0.15610  0.43832  1.0000
  S   S15       1.0  0.40391  0.86462  0.46405  1.0000
  S   S16       1.0  0.59609  0.13538  0.53595  1.0000
