data_image0
_chemical_formula_structural       Sm4Cl16N12C4H4C4H4C4H4C4H4C4H4C4H4C8H4C8H4C8H4C4H4C4H4C4H4
_chemical_formula_sum              "Sm4 Cl16 N12 C60 H48"
_cell_length_a       8.7594
_cell_length_b       20.009
_cell_length_c       17.2945
_cell_angle_alpha    90
_cell_angle_beta     92.855
_cell_angle_gamma    90

_space_group_name_H-M_alt    "P 1"
_space_group_IT_number       1

loop_
  _space_group_symop_operation_xyz
  'x, y, z'

loop_
  _atom_site_type_symbol
  _atom_site_label
  _atom_site_symmetry_multiplicity
  _atom_site_fract_x
  _atom_site_fract_y
  _atom_site_fract_z
  _atom_site_occupancy
  Sm  Sm1       1.0  0.51834  0.69702  0.34988  1.0000
  Sm  Sm2       1.0  0.48166  0.19702  0.15012  1.0000
  Sm  Sm3       1.0  0.48166  0.30298  0.65012  1.0000
  Sm  Sm4       1.0  0.51834  0.80298  0.84988  1.0000
  Cl  Cl1       1.0  0.59441  0.62008  0.22923  1.0000
  Cl  Cl2       1.0  0.40559  0.12008  0.27077  1.0000
  Cl  Cl3       1.0  0.40559  0.37992  0.77077  1.0000
  Cl  Cl4       1.0  0.59441  0.87992  0.72923  1.0000
  Cl  Cl5       1.0  0.33416  0.60900  0.41557  1.0000
  Cl  Cl6       1.0  0.66584  0.10900  0.08443  1.0000
  Cl  Cl7       1.0  0.66584  0.39100  0.58443  1.0000
  Cl  Cl8       1.0  0.33416  0.89100  0.91557  1.0000
  Cl  Cl9       1.0  0.34417  0.79077  0.41905  1.0000
  Cl  Cl10      1.0  0.65583  0.29077  0.08095  1.0000
  Cl  Cl11      1.0  0.65583  0.20923  0.58095  1.0000
  Cl  Cl12      1.0  0.34417  0.70923  0.91905  1.0000
  Cl  Cl13      1.0  0.65031  0.79513  0.27062  1.0000
  Cl  Cl14      1.0  0.34969  0.29513  0.22938  1.0000
  Cl  Cl15      1.0  0.34969  0.20487  0.72938  1.0000
  Cl  Cl16      1.0  0.65031  0.70487  0.77062  1.0000
  N   N1        1.0  0.70270  0.74912  0.45471  1.0000
  N   N2        1.0  0.29730  0.24912  0.04529  1.0000
  N   N3        1.0  0.29730  0.25088  0.54529  1.0000
  N   N4        1.0  0.70270  0.75088  0.95471  1.0000
  N   N5        1.0  0.72390  0.61082  0.41130  1.0000
  N   N6        1.0  0.27610  0.11082  0.08870  1.0000
  N   N7        1.0  0.27610  0.38918  0.58870  1.0000
  N   N8        1.0  0.72390  0.88918  0.91130  1.0000
  N   N9        1.0  0.29210  0.78568  0.74948  1.0000
  N   N10       1.0  0.70790  0.28568  0.75052  1.0000
  N   N11       1.0  0.70790  0.21432  0.25052  1.0000
  N   N12       1.0  0.29210  0.71432  0.24948  1.0000
  C   C1        1.0  0.71810  0.59199  0.48524  1.0000
  C   C2        1.0  0.28190  0.09199  0.01476  1.0000
  C   C3        1.0  0.28190  0.40801  0.51476  1.0000
  C   C4        1.0  0.71810  0.90801  0.98524  1.0000
  H   H1        1.0  0.63890  0.60859  0.51355  1.0000
  H   H2        1.0  0.36110  0.10859  0.98645  1.0000
  H   H3        1.0  0.36110  0.39141  0.48645  1.0000
  H   H4        1.0  0.63890  0.89141  0.01355  1.0000
  C   C5        1.0  0.85080  0.75532  0.43886  1.0000
  C   C6        1.0  0.14920  0.25532  0.06114  1.0000
  C   C7        1.0  0.14920  0.24468  0.56114  1.0000
  C   C8        1.0  0.85080  0.74468  0.93886  1.0000
  H   H5        1.0  0.87616  0.75457  0.38728  1.0000
  H   H6        1.0  0.12384  0.25457  0.11272  1.0000
  H   H7        1.0  0.12384  0.24543  0.61272  1.0000
  H   H8        1.0  0.87616  0.74543  0.88728  1.0000
  C   C9        1.0  0.32150  0.77739  0.67479  1.0000
  C   C10       1.0  0.67850  0.27739  0.82521  1.0000
  C   C11       1.0  0.67850  0.22261  0.32521  1.0000
  C   C12       1.0  0.32150  0.72261  0.17479  1.0000
  H   H9        1.0  0.42306  0.77637  0.66153  1.0000
  H   H10       1.0  0.57694  0.27637  0.83847  1.0000
  H   H11       1.0  0.57694  0.22363  0.33847  1.0000
  H   H12       1.0  0.42306  0.72363  0.16153  1.0000
  C   C13       1.0  0.67010  0.75338  0.52905  1.0000
  C   C14       1.0  0.32990  0.25338  0.97095  1.0000
  C   C15       1.0  0.32990  0.24662  0.47095  1.0000
  C   C16       1.0  0.67010  0.74662  0.02905  1.0000
  H   H13       1.0  0.56812  0.75099  0.54135  1.0000
  H   H14       1.0  0.43188  0.25099  0.95865  1.0000
  H   H15       1.0  0.43188  0.24901  0.45865  1.0000
  H   H16       1.0  0.56812  0.74901  0.04135  1.0000
  C   C17       1.0  0.14440  0.78584  0.76692  1.0000
  C   C18       1.0  0.85560  0.28584  0.73308  1.0000
  C   C19       1.0  0.85560  0.21416  0.23308  1.0000
  C   C20       1.0  0.14440  0.71416  0.26692  1.0000
  H   H17       1.0  0.12116  0.79079  0.81849  1.0000
  H   H18       1.0  0.87884  0.29079  0.68151  1.0000
  H   H19       1.0  0.87884  0.20921  0.18151  1.0000
  H   H20       1.0  0.12116  0.70921  0.31849  1.0000
  C   C21       1.0  0.84080  0.58633  0.37271  1.0000
  C   C22       1.0  0.15920  0.08633  0.12729  1.0000
  C   C23       1.0  0.15920  0.41367  0.62729  1.0000
  C   C24       1.0  0.84080  0.91367  0.87271  1.0000
  H   H21       1.0  0.84850  0.59865  0.32121  1.0000
  H   H22       1.0  0.15150  0.09865  0.17879  1.0000
  H   H23       1.0  0.15150  0.40135  0.67879  1.0000
  H   H24       1.0  0.84850  0.90135  0.82121  1.0000
  C   C25       1.0  0.93260  0.76469  0.57246  1.0000
  C   C26       1.0  0.06740  0.26469  0.92754  1.0000
  C   C27       1.0  0.06740  0.23531  0.42754  1.0000
  C   C28       1.0  0.93260  0.73531  0.07246  1.0000
  C   C29       1.0  0.02500  0.77903  0.71209  1.0000
  C   C30       1.0  0.97500  0.27903  0.78791  1.0000
  C   C31       1.0  0.97500  0.22097  0.28791  1.0000
  C   C32       1.0  0.02500  0.72097  0.21209  1.0000
  H   H25       1.0  0.92449  0.77951  0.72704  1.0000
  H   H26       1.0  0.07551  0.27951  0.77296  1.0000
  H   H27       1.0  0.07551  0.22049  0.27296  1.0000
  H   H28       1.0  0.92449  0.72049  0.22704  1.0000
  C   C33       1.0  0.05610  0.77143  0.63426  1.0000
  C   C34       1.0  0.94390  0.27143  0.86574  1.0000
  C   C35       1.0  0.94390  0.22857  0.36574  1.0000
  C   C36       1.0  0.05610  0.72857  0.13426  1.0000
  C   C37       1.0  0.20920  0.77027  0.61633  1.0000
  C   C38       1.0  0.79080  0.27027  0.88367  1.0000
  C   C39       1.0  0.79080  0.22973  0.38367  1.0000
  C   C40       1.0  0.20920  0.72973  0.11633  1.0000
  H   H29       1.0  0.23577  0.76473  0.56533  1.0000
  H   H30       1.0  0.76423  0.26473  0.93467  1.0000
  H   H31       1.0  0.76423  0.23527  0.43467  1.0000
  H   H32       1.0  0.23577  0.73527  0.06533  1.0000
  C   C41       1.0  0.94310  0.52358  0.48192  1.0000
  C   C42       1.0  0.05690  0.02358  0.01808  1.0000
  C   C43       1.0  0.05690  0.47642  0.51808  1.0000
  C   C44       1.0  0.94310  0.97642  0.98192  1.0000
  C   C45       1.0  0.77950  0.76114  0.58895  1.0000
  C   C46       1.0  0.22050  0.26114  0.91105  1.0000
  C   C47       1.0  0.22050  0.23886  0.41105  1.0000
  C   C48       1.0  0.77950  0.73886  0.08895  1.0000
  H   H33       1.0  0.75048  0.76395  0.63985  1.0000
  H   H34       1.0  0.24952  0.26395  0.86015  1.0000
  H   H35       1.0  0.24952  0.23605  0.36015  1.0000
  H   H36       1.0  0.75048  0.73605  0.13985  1.0000
  C   C49       1.0  0.96700  0.76273  0.49481  1.0000
  C   C50       1.0  0.03300  0.26273  0.00519  1.0000
  C   C51       1.0  0.03300  0.23727  0.50519  1.0000
  C   C52       1.0  0.96700  0.73727  0.99481  1.0000
  H   H37       1.0  0.06775  0.76639  0.48079  1.0000
  H   H38       1.0  0.93225  0.26639  0.01921  1.0000
  H   H39       1.0  0.93225  0.23361  0.51921  1.0000
  H   H40       1.0  0.06775  0.73361  0.98079  1.0000
  C   C53       1.0  0.82250  0.54931  0.52241  1.0000
  C   C54       1.0  0.17750  0.04931  0.97759  1.0000
  C   C55       1.0  0.17750  0.45069  0.47759  1.0000
  C   C56       1.0  0.82250  0.95069  0.02241  1.0000
  H   H41       1.0  0.81225  0.53790  0.57402  1.0000
  H   H42       1.0  0.18775  0.03790  0.92598  1.0000
  H   H43       1.0  0.18775  0.46210  0.42598  1.0000
  H   H44       1.0  0.81225  0.96210  0.07402  1.0000
  C   C57       1.0  0.95040  0.54380  0.40537  1.0000
  C   C58       1.0  0.04960  0.04380  0.09463  1.0000
  C   C59       1.0  0.04960  0.45620  0.59463  1.0000
  C   C60       1.0  0.95040  0.95620  0.90537  1.0000
  H   H45       1.0  0.02933  0.52863  0.37593  1.0000
  H   H46       1.0  0.97067  0.02863  0.12407  1.0000
  H   H47       1.0  0.97067  0.47137  0.62407  1.0000
  H   H48       1.0  0.02933  0.97137  0.87593  1.0000
