data_image0
_chemical_formula_structural       Lu4Cl16N8C12H8C12H8C8H8C8H8
_chemical_formula_sum              "Lu4 Cl16 N8 C40 H32"
_cell_length_a       14.516
_cell_length_b       12.071
_cell_length_c       13.24
_cell_angle_alpha    90
_cell_angle_beta     105.64
_cell_angle_gamma    90

_space_group_name_H-M_alt    "P 1"
_space_group_IT_number       1

loop_
  _space_group_symop_operation_xyz
  'x, y, z'

loop_
  _atom_site_type_symbol
  _atom_site_label
  _atom_site_symmetry_multiplicity
  _atom_site_fract_x
  _atom_site_fract_y
  _atom_site_fract_z
  _atom_site_occupancy
  Lu  Lu1       1.0  1.00000  0.27378  0.25000  1.0000
  Lu  Lu2       1.0  0.50000  0.77378  0.25000  1.0000
  Lu  Lu3       1.0  0.00000  0.72622  0.75000  1.0000
  Lu  Lu4       1.0  0.50000  0.22622  0.75000  1.0000
  Cl  Cl1       1.0  0.18086  0.27293  0.26964  1.0000
  Cl  Cl2       1.0  0.81914  0.27293  0.23036  1.0000
  Cl  Cl3       1.0  0.68086  0.77293  0.26964  1.0000
  Cl  Cl4       1.0  0.31914  0.77293  0.23036  1.0000
  Cl  Cl5       1.0  0.81914  0.72707  0.73036  1.0000
  Cl  Cl6       1.0  0.18086  0.72707  0.76964  1.0000
  Cl  Cl7       1.0  0.31914  0.22707  0.73036  1.0000
  Cl  Cl8       1.0  0.68086  0.22707  0.76964  1.0000
  Cl  Cl9       1.0  0.97469  0.27068  0.05122  1.0000
  Cl  Cl10      1.0  0.02531  0.27068  0.44878  1.0000
  Cl  Cl11      1.0  0.47469  0.77068  0.05122  1.0000
  Cl  Cl12      1.0  0.52531  0.77068  0.44878  1.0000
  Cl  Cl13      1.0  0.02531  0.72932  0.94878  1.0000
  Cl  Cl14      1.0  0.97469  0.72932  0.55122  1.0000
  Cl  Cl15      1.0  0.52531  0.22932  0.94878  1.0000
  Cl  Cl16      1.0  0.47469  0.22932  0.55122  1.0000
  N   N1        1.0  1.00000  0.47700  0.25000  1.0000
  N   N2        1.0  0.50000  0.97700  0.25000  1.0000
  N   N3        1.0  0.00000  0.52300  0.75000  1.0000
  N   N4        1.0  0.50000  0.02300  0.75000  1.0000
  N   N5        1.0  1.00000  0.06930  0.25000  1.0000
  N   N6        1.0  0.50000  0.56930  0.25000  1.0000
  N   N7        1.0  0.00000  0.93070  0.75000  1.0000
  N   N8        1.0  0.50000  0.43070  0.75000  1.0000
  C   C1        1.0  1.00000  0.71230  0.25000  1.0000
  C   C2        1.0  0.50000  0.21230  0.25000  1.0000
  C   C3        1.0  0.00000  0.28770  0.75000  1.0000
  C   C4        1.0  0.50000  0.78770  0.75000  1.0000
  C   C5        1.0  0.91927  0.53680  0.23870  1.0000
  C   C6        1.0  0.08073  0.53680  0.26130  1.0000
  C   C7        1.0  0.41927  0.03680  0.23870  1.0000
  C   C8        1.0  0.58073  0.03680  0.26130  1.0000
  C   C9        1.0  0.08073  0.46320  0.76130  1.0000
  C   C10       1.0  0.91927  0.46320  0.73870  1.0000
  C   C11       1.0  0.58073  0.96320  0.76130  1.0000
  C   C12       1.0  0.41927  0.96320  0.73870  1.0000
  H   H1        1.0  0.86084  0.49772  0.23007  1.0000
  H   H2        1.0  0.13916  0.49772  0.26993  1.0000
  H   H3        1.0  0.36084  0.99772  0.23007  1.0000
  H   H4        1.0  0.63916  0.99772  0.26993  1.0000
  H   H5        1.0  0.13916  0.50228  0.76993  1.0000
  H   H6        1.0  0.86084  0.50228  0.73007  1.0000
  H   H7        1.0  0.63916  0.00228  0.76993  1.0000
  H   H8        1.0  0.36084  0.00228  0.73007  1.0000
  C   C13       1.0  1.00000  0.83560  0.25000  1.0000
  C   C14       1.0  0.50000  0.33560  0.25000  1.0000
  C   C15       1.0  0.00000  0.16440  0.75000  1.0000
  C   C16       1.0  0.50000  0.66440  0.75000  1.0000
  C   C17       1.0  0.07238  0.01107  0.23120  1.0000
  C   C18       1.0  0.92762  0.01107  0.26880  1.0000
  C   C19       1.0  0.57238  0.51107  0.23120  1.0000
  C   C20       1.0  0.42762  0.51107  0.26880  1.0000
  C   C21       1.0  0.92762  0.98893  0.76880  1.0000
  C   C22       1.0  0.07238  0.98893  0.73120  1.0000
  C   C23       1.0  0.42762  0.48893  0.76880  1.0000
  C   C24       1.0  0.57238  0.48893  0.73120  1.0000
  H   H9        1.0  0.12466  0.05052  0.21824  1.0000
  H   H10       1.0  0.87534  0.05052  0.28176  1.0000
  H   H11       1.0  0.62466  0.55052  0.21824  1.0000
  H   H12       1.0  0.37534  0.55052  0.28176  1.0000
  H   H13       1.0  0.87534  0.94948  0.78176  1.0000
  H   H14       1.0  0.12466  0.94948  0.71824  1.0000
  H   H15       1.0  0.37534  0.44948  0.78176  1.0000
  H   H16       1.0  0.62466  0.44948  0.71824  1.0000
  C   C25       1.0  0.91621  0.65130  0.23890  1.0000
  C   C26       1.0  0.08379  0.65130  0.26110  1.0000
  C   C27       1.0  0.41621  0.15130  0.23890  1.0000
  C   C28       1.0  0.58379  0.15130  0.26110  1.0000
  C   C29       1.0  0.08379  0.34870  0.76110  1.0000
  C   C30       1.0  0.91621  0.34870  0.73890  1.0000
  C   C31       1.0  0.58379  0.84870  0.76110  1.0000
  C   C32       1.0  0.41621  0.84870  0.73890  1.0000
  H   H17       1.0  0.85706  0.68842  0.23158  1.0000
  H   H18       1.0  0.14294  0.68842  0.26842  1.0000
  H   H19       1.0  0.35706  0.18842  0.23158  1.0000
  H   H20       1.0  0.64294  0.18842  0.26842  1.0000
  H   H21       1.0  0.14294  0.31158  0.76842  1.0000
  H   H22       1.0  0.85706  0.31158  0.73158  1.0000
  H   H23       1.0  0.64294  0.81158  0.76842  1.0000
  H   H24       1.0  0.35706  0.81158  0.73158  1.0000
  C   C33       1.0  0.07478  0.89643  0.22972  1.0000
  C   C34       1.0  0.92522  0.89643  0.27028  1.0000
  C   C35       1.0  0.57478  0.39643  0.22972  1.0000
  C   C36       1.0  0.42522  0.39643  0.27028  1.0000
  C   C37       1.0  0.92522  0.10357  0.77028  1.0000
  C   C38       1.0  0.07478  0.10357  0.72972  1.0000
  C   C39       1.0  0.42522  0.60357  0.77028  1.0000
  C   C40       1.0  0.57478  0.60357  0.72972  1.0000
  H   H25       1.0  0.12731  0.85921  0.21490  1.0000
  H   H26       1.0  0.87269  0.85921  0.28510  1.0000
  H   H27       1.0  0.62731  0.35921  0.21490  1.0000
  H   H28       1.0  0.37269  0.35921  0.28510  1.0000
  H   H29       1.0  0.87269  0.14079  0.78510  1.0000
  H   H30       1.0  0.12731  0.14079  0.71490  1.0000
  H   H31       1.0  0.37269  0.64079  0.78510  1.0000
  H   H32       1.0  0.62731  0.64079  0.71490  1.0000
