data_image0
_chemical_formula_structural       Mo8Cu4O26N6C4H2C2H2C4H4C2
_chemical_formula_sum              "Mo8 Cu4 O26 N6 C12 H8"
_cell_length_a       9.9538
_cell_length_b       11.4051
_cell_length_c       12.515
_cell_angle_alpha    64.535
_cell_angle_beta     74.892
_cell_angle_gamma    89.805

_space_group_name_H-M_alt    "P 1"
_space_group_IT_number       1

loop_
  _space_group_symop_operation_xyz
  'x, y, z'

loop_
  _atom_site_type_symbol
  _atom_site_label
  _atom_site_symmetry_multiplicity
  _atom_site_fract_x
  _atom_site_fract_y
  _atom_site_fract_z
  _atom_site_occupancy
  Mo  Mo1       1.0  0.89226  0.30529  0.75111  1.0000
  Mo  Mo2       1.0  0.10774  0.69471  0.24889  1.0000
  Mo  Mo3       1.0  0.19159  0.23251  0.62974  1.0000
  Mo  Mo4       1.0  0.80841  0.76749  0.37026  1.0000
  Mo  Mo5       1.0  0.00512  0.60934  0.56263  1.0000
  Mo  Mo6       1.0  0.99488  0.39066  0.43737  1.0000
  Mo  Mo7       1.0  0.69916  0.46414  0.56116  1.0000
  Mo  Mo8       1.0  0.30084  0.53586  0.43884  1.0000
  Cu  Cu1       1.0  0.01561  0.51007  0.86761  1.0000
  Cu  Cu2       1.0  0.98439  0.48993  0.13239  1.0000
  Cu  Cu3       1.0  0.33796  0.43699  0.72894  1.0000
  Cu  Cu4       1.0  0.66204  0.56301  0.27106  1.0000
  O   O1        1.0  0.73690  0.21420  0.84230  1.0000
  O   O2        1.0  0.26310  0.78580  0.15770  1.0000
  O   O3        1.0  0.24830  0.09170  0.63500  1.0000
  O   O4        1.0  0.75170  0.90830  0.36500  1.0000
  O   O5        1.0  0.55930  0.38590  0.68740  1.0000
  O   O6        1.0  0.44070  0.61410  0.31260  1.0000
  O   O7        1.0  0.07670  0.24830  0.48690  1.0000
  O   O8        1.0  0.92330  0.75170  0.51310  1.0000
  O   O9        1.0  0.83640  0.48440  0.66920  1.0000
  O   O10       1.0  0.16360  0.51560  0.33080  1.0000
  O   O11       1.0  0.99910  0.17690  0.72870  1.0000
  O   O12       1.0  0.00090  0.82310  0.27130  1.0000
  O   O13       1.0  0.31700  0.35940  0.47820  1.0000
  O   O14       1.0  0.68300  0.64060  0.52180  1.0000
  O   O15       1.0  0.82860  0.32610  0.57830  1.0000
  O   O16       1.0  0.17140  0.67390  0.42170  1.0000
  O   O17       1.0  0.07650  0.42810  0.57430  1.0000
  O   O18       1.0  0.92350  0.57190  0.42570  1.0000
  O   O19       1.0  0.06700  0.61330  0.67610  1.0000
  O   O20       1.0  0.93300  0.38670  0.32390  1.0000
  O   O21       1.0  0.96430  0.34130  0.84530  1.0000
  O   O22       1.0  0.03570  0.65870  0.15470  1.0000
  O   O23       1.0  0.25840  0.26360  0.72950  1.0000
  O   O24       1.0  0.74160  0.73640  0.27050  1.0000
  O   O25       1.0  0.65150  0.45730  0.44090  1.0000
  O   O26       1.0  0.34850  0.54270  0.55910  1.0000
  N   N1        1.0  0.29470  0.43120  0.88830  1.0000
  N   N2        1.0  0.70530  0.56880  0.11170  1.0000
  N   N3        1.0  0.17530  0.47030  0.93590  1.0000
  N   N4        1.0  0.82470  0.52970  0.06410  1.0000
  N   N5        1.0  0.16390  0.45020  0.05240  1.0000
  N   N6        1.0  0.83610  0.54980  0.94760  1.0000
  C   C1        1.0  0.27820  0.39620  0.08030  1.0000
  C   C2        1.0  0.72180  0.60380  0.91970  1.0000
  C   C3        1.0  0.32020  0.35370  0.18910  1.0000
  C   C4        1.0  0.67980  0.64630  0.81090  1.0000
  H   H1        1.0  0.26610  0.36360  0.25880  1.0000
  H   H2        1.0  0.73390  0.63640  0.74120  1.0000
  C   C5        1.0  0.44200  0.29780  0.19020  1.0000
  C   C6        1.0  0.55800  0.70220  0.80980  1.0000
  H   H3        1.0  0.47140  0.26740  0.26290  1.0000
  H   H4        1.0  0.52860  0.73260  0.73710  1.0000
  C   C7        1.0  0.36060  0.38330  0.97930  1.0000
  C   C8        1.0  0.63940  0.61670  0.02070  1.0000
  C   C9        1.0  0.48680  0.32750  0.97940  1.0000
  C   C10       1.0  0.51320  0.67250  0.02060  1.0000
  H   H5        1.0  0.54270  0.32030  0.90880  1.0000
  H   H6        1.0  0.45730  0.67970  0.09120  1.0000
  H   H7        1.0  0.60870  0.24370  0.09290  1.0000
  H   H8        1.0  0.39130  0.75630  0.90710  1.0000
  C   C11       1.0  0.52530  0.28360  0.08790  1.0000
  C   C12       1.0  0.47470  0.71640  0.91210  1.0000
