data_image0
_chemical_formula_structural       Mg8O48C8H8C8H8C8H8
_chemical_formula_sum              "Mg8 O48 C24 H24"
_cell_length_a       7.7729
_cell_length_b       14.5055
_cell_length_c       15.5929
_cell_angle_alpha    90
_cell_angle_beta     91.2
_cell_angle_gamma    90

_space_group_name_H-M_alt    "P 1"
_space_group_IT_number       1

loop_
  _space_group_symop_operation_xyz
  'x, y, z'

loop_
  _atom_site_type_symbol
  _atom_site_label
  _atom_site_symmetry_multiplicity
  _atom_site_fract_x
  _atom_site_fract_y
  _atom_site_fract_z
  _atom_site_occupancy
  Mg  Mg1       1.0  0.00000  0.00000  0.00000  1.0000
  Mg  Mg2       1.0  0.00000  0.00000  0.50000  1.0000
  Mg  Mg3       1.0  0.50000  0.50000  0.00000  1.0000
  Mg  Mg4       1.0  0.50000  0.50000  0.50000  1.0000
  Mg  Mg5       1.0  0.00000  0.32217  0.25000  1.0000
  Mg  Mg6       1.0  0.50000  0.82217  0.25000  1.0000
  Mg  Mg7       1.0  0.00000  0.67783  0.75000  1.0000
  Mg  Mg8       1.0  0.50000  0.17783  0.75000  1.0000
  O   O1        1.0  0.11285  0.09892  0.08372  1.0000
  O   O2        1.0  0.88715  0.09892  0.41628  1.0000
  O   O3        1.0  0.61285  0.59892  0.08372  1.0000
  O   O4        1.0  0.38715  0.59892  0.41628  1.0000
  O   O5        1.0  0.88715  0.90108  0.91628  1.0000
  O   O6        1.0  0.11285  0.90108  0.58372  1.0000
  O   O7        1.0  0.38715  0.40108  0.91628  1.0000
  O   O8        1.0  0.61285  0.40108  0.58372  1.0000
  O   O9        1.0  0.10875  0.21862  0.17413  1.0000
  O   O10       1.0  0.89125  0.21862  0.32587  1.0000
  O   O11       1.0  0.60875  0.71862  0.17413  1.0000
  O   O12       1.0  0.39125  0.71862  0.32587  1.0000
  O   O13       1.0  0.89125  0.78138  0.82587  1.0000
  O   O14       1.0  0.10875  0.78138  0.67413  1.0000
  O   O15       1.0  0.39125  0.28138  0.82587  1.0000
  O   O16       1.0  0.60875  0.28138  0.67413  1.0000
  O   O17       1.0  0.21011  0.32760  0.33250  1.0000
  O   O18       1.0  0.78989  0.32760  0.16750  1.0000
  O   O19       1.0  0.71011  0.82760  0.33250  1.0000
  O   O20       1.0  0.28989  0.82760  0.16750  1.0000
  O   O21       1.0  0.78989  0.67240  0.66750  1.0000
  O   O22       1.0  0.21011  0.67240  0.83250  1.0000
  O   O23       1.0  0.28989  0.17240  0.66750  1.0000
  O   O24       1.0  0.71011  0.17240  0.83250  1.0000
  O   O25       1.0  0.37464  0.39663  0.43254  1.0000
  O   O26       1.0  0.62536  0.39663  0.06746  1.0000
  O   O27       1.0  0.87464  0.89663  0.43254  1.0000
  O   O28       1.0  0.12536  0.89663  0.06746  1.0000
  O   O29       1.0  0.62536  0.60337  0.56746  1.0000
  O   O30       1.0  0.37464  0.60337  0.93254  1.0000
  O   O31       1.0  0.12536  0.10337  0.56746  1.0000
  O   O32       1.0  0.87464  0.10337  0.93254  1.0000
  O   O33       1.0  0.10687  0.42409  0.17108  1.0000
  O   O34       1.0  0.89313  0.42409  0.32892  1.0000
  O   O35       1.0  0.60687  0.92409  0.17108  1.0000
  O   O36       1.0  0.39313  0.92409  0.32892  1.0000
  O   O37       1.0  0.89313  0.57591  0.82892  1.0000
  O   O38       1.0  0.10687  0.57591  0.67108  1.0000
  O   O39       1.0  0.39313  0.07591  0.82892  1.0000
  O   O40       1.0  0.60687  0.07591  0.67108  1.0000
  O   O41       1.0  0.27852  0.48921  0.07623  1.0000
  O   O42       1.0  0.72148  0.48921  0.42377  1.0000
  O   O43       1.0  0.77852  0.98921  0.07623  1.0000
  O   O44       1.0  0.22148  0.98921  0.42377  1.0000
  O   O45       1.0  0.72148  0.51079  0.92377  1.0000
  O   O46       1.0  0.27852  0.51079  0.57623  1.0000
  O   O47       1.0  0.22148  0.01079  0.92377  1.0000
  O   O48       1.0  0.77852  0.01079  0.57623  1.0000
  C   C1        1.0  0.03710  0.15794  0.12934  1.0000
  C   C2        1.0  0.96290  0.15794  0.37066  1.0000
  C   C3        1.0  0.53710  0.65794  0.12934  1.0000
  C   C4        1.0  0.46290  0.65794  0.37066  1.0000
  C   C5        1.0  0.96290  0.84206  0.87066  1.0000
  C   C6        1.0  0.03710  0.84206  0.62934  1.0000
  C   C7        1.0  0.46290  0.34206  0.87066  1.0000
  C   C8        1.0  0.53710  0.34206  0.62934  1.0000
  H   H1        1.0  0.91500  0.15580  0.12950  1.0000
  H   H2        1.0  0.08500  0.15580  0.37050  1.0000
  H   H3        1.0  0.41500  0.65580  0.12950  1.0000
  H   H4        1.0  0.58500  0.65580  0.37050  1.0000
  H   H5        1.0  0.08500  0.84420  0.87050  1.0000
  H   H6        1.0  0.91500  0.84420  0.62950  1.0000
  H   H7        1.0  0.58500  0.34420  0.87050  1.0000
  H   H8        1.0  0.41500  0.34420  0.62950  1.0000
  C   C9        1.0  0.28622  0.39615  0.36435  1.0000
  C   C10       1.0  0.71378  0.39615  0.13565  1.0000
  C   C11       1.0  0.78622  0.89615  0.36435  1.0000
  C   C12       1.0  0.21378  0.89615  0.13565  1.0000
  C   C13       1.0  0.71378  0.60385  0.63565  1.0000
  C   C14       1.0  0.28622  0.60385  0.86435  1.0000
  C   C15       1.0  0.21378  0.10385  0.63565  1.0000
  C   C16       1.0  0.78622  0.10385  0.86435  1.0000
  H   H9        1.0  0.27600  0.45280  0.33410  1.0000
  H   H10       1.0  0.72400  0.45280  0.16590  1.0000
  H   H11       1.0  0.77600  0.95280  0.33410  1.0000
  H   H12       1.0  0.22400  0.95280  0.16590  1.0000
  H   H13       1.0  0.72400  0.54720  0.66590  1.0000
  H   H14       1.0  0.27600  0.54720  0.83410  1.0000
  H   H15       1.0  0.22400  0.04720  0.66590  1.0000
  H   H16       1.0  0.77600  0.04720  0.83410  1.0000
  C   C17       1.0  0.24752  0.43101  0.13415  1.0000
  C   C18       1.0  0.75248  0.43101  0.36585  1.0000
  C   C19       1.0  0.74752  0.93101  0.13415  1.0000
  C   C20       1.0  0.25248  0.93101  0.36585  1.0000
  C   C21       1.0  0.75248  0.56899  0.86585  1.0000
  C   C22       1.0  0.24752  0.56899  0.63415  1.0000
  C   C23       1.0  0.25248  0.06899  0.86585  1.0000
  C   C24       1.0  0.74752  0.06899  0.63415  1.0000
  H   H17       1.0  0.33710  0.38970  0.15080  1.0000
  H   H18       1.0  0.66290  0.38970  0.34920  1.0000
  H   H19       1.0  0.83710  0.88970  0.15080  1.0000
  H   H20       1.0  0.16290  0.88970  0.34920  1.0000
  H   H21       1.0  0.66290  0.61030  0.84920  1.0000
  H   H22       1.0  0.33710  0.61030  0.65080  1.0000
  H   H23       1.0  0.16290  0.11030  0.84920  1.0000
  H   H24       1.0  0.83710  0.11030  0.65080  1.0000
