data_image0
_chemical_formula_structural       Mg8O48C8H8C8H8C8H8
_chemical_formula_sum              "Mg8 O48 C24 H24"
_cell_length_a       7.906
_cell_length_b       14.3988
_cell_length_c       15.6269
_cell_angle_alpha    90
_cell_angle_beta     90.812
_cell_angle_gamma    90

_space_group_name_H-M_alt    "P 1"
_space_group_IT_number       1

loop_
  _space_group_symop_operation_xyz
  'x, y, z'

loop_
  _atom_site_type_symbol
  _atom_site_label
  _atom_site_symmetry_multiplicity
  _atom_site_fract_x
  _atom_site_fract_y
  _atom_site_fract_z
  _atom_site_occupancy
  Mg  Mg1       1.0  0.00000  0.00000  0.00000  1.0000
  Mg  Mg2       1.0  0.00000  0.00000  0.50000  1.0000
  Mg  Mg3       1.0  0.50000  0.50000  0.00000  1.0000
  Mg  Mg4       1.0  0.50000  0.50000  0.50000  1.0000
  Mg  Mg5       1.0  0.00000  0.32642  0.25000  1.0000
  Mg  Mg6       1.0  0.50000  0.82642  0.25000  1.0000
  Mg  Mg7       1.0  0.00000  0.67358  0.75000  1.0000
  Mg  Mg8       1.0  0.50000  0.17358  0.75000  1.0000
  O   O1        1.0  0.10507  0.10310  0.08177  1.0000
  O   O2        1.0  0.89493  0.10310  0.41823  1.0000
  O   O3        1.0  0.60507  0.60310  0.08177  1.0000
  O   O4        1.0  0.39493  0.60310  0.41823  1.0000
  O   O5        1.0  0.89493  0.89690  0.91823  1.0000
  O   O6        1.0  0.10507  0.89690  0.58177  1.0000
  O   O7        1.0  0.39493  0.39690  0.91823  1.0000
  O   O8        1.0  0.60507  0.39690  0.58177  1.0000
  O   O9        1.0  0.10321  0.22244  0.17222  1.0000
  O   O10       1.0  0.89679  0.22244  0.32778  1.0000
  O   O11       1.0  0.60321  0.72244  0.17222  1.0000
  O   O12       1.0  0.39679  0.72244  0.32778  1.0000
  O   O13       1.0  0.89679  0.77756  0.82778  1.0000
  O   O14       1.0  0.10321  0.77756  0.67222  1.0000
  O   O15       1.0  0.39679  0.27756  0.82778  1.0000
  O   O16       1.0  0.60321  0.27756  0.67222  1.0000
  O   O17       1.0  0.21265  0.33160  0.32947  1.0000
  O   O18       1.0  0.78735  0.33160  0.17053  1.0000
  O   O19       1.0  0.71265  0.83160  0.32947  1.0000
  O   O20       1.0  0.28735  0.83160  0.17053  1.0000
  O   O21       1.0  0.78735  0.66840  0.67053  1.0000
  O   O22       1.0  0.21265  0.66840  0.82947  1.0000
  O   O23       1.0  0.28735  0.16840  0.67053  1.0000
  O   O24       1.0  0.71265  0.16840  0.82947  1.0000
  O   O25       1.0  0.37848  0.39786  0.42811  1.0000
  O   O26       1.0  0.62152  0.39786  0.07189  1.0000
  O   O27       1.0  0.87848  0.89786  0.42811  1.0000
  O   O28       1.0  0.12152  0.89786  0.07189  1.0000
  O   O29       1.0  0.62152  0.60214  0.57189  1.0000
  O   O30       1.0  0.37848  0.60214  0.92811  1.0000
  O   O31       1.0  0.12152  0.10214  0.57189  1.0000
  O   O32       1.0  0.87848  0.10214  0.92811  1.0000
  O   O33       1.0  0.10553  0.42865  0.16950  1.0000
  O   O34       1.0  0.89447  0.42865  0.33050  1.0000
  O   O35       1.0  0.60553  0.92865  0.16950  1.0000
  O   O36       1.0  0.39447  0.92865  0.33050  1.0000
  O   O37       1.0  0.89447  0.57135  0.83050  1.0000
  O   O38       1.0  0.10553  0.57135  0.66950  1.0000
  O   O39       1.0  0.39447  0.07135  0.83050  1.0000
  O   O40       1.0  0.60553  0.07135  0.66950  1.0000
  O   O41       1.0  0.28012  0.49028  0.07549  1.0000
  O   O42       1.0  0.71988  0.49028  0.42451  1.0000
  O   O43       1.0  0.78012  0.99028  0.07549  1.0000
  O   O44       1.0  0.21988  0.99028  0.42451  1.0000
  O   O45       1.0  0.71988  0.50972  0.92451  1.0000
  O   O46       1.0  0.28012  0.50972  0.57549  1.0000
  O   O47       1.0  0.21988  0.00972  0.92451  1.0000
  O   O48       1.0  0.78012  0.00972  0.57549  1.0000
  C   C1        1.0  0.03526  0.15906  0.13096  1.0000
  C   C2        1.0  0.96474  0.15906  0.36904  1.0000
  C   C3        1.0  0.53526  0.65906  0.13096  1.0000
  C   C4        1.0  0.46474  0.65906  0.36904  1.0000
  C   C5        1.0  0.96474  0.84094  0.86904  1.0000
  C   C6        1.0  0.03526  0.84094  0.63096  1.0000
  C   C7        1.0  0.46474  0.34094  0.86904  1.0000
  C   C8        1.0  0.53526  0.34094  0.63096  1.0000
  H   H1        1.0  0.91910  0.15230  0.13730  1.0000
  H   H2        1.0  0.08090  0.15230  0.36270  1.0000
  H   H3        1.0  0.41910  0.65230  0.13730  1.0000
  H   H4        1.0  0.58090  0.65230  0.36270  1.0000
  H   H5        1.0  0.08090  0.84770  0.86270  1.0000
  H   H6        1.0  0.91910  0.84770  0.63730  1.0000
  H   H7        1.0  0.58090  0.34770  0.86270  1.0000
  H   H8        1.0  0.41910  0.34770  0.63730  1.0000
  C   C9        1.0  0.28738  0.39830  0.36307  1.0000
  C   C10       1.0  0.71262  0.39830  0.13693  1.0000
  C   C11       1.0  0.78738  0.89830  0.36307  1.0000
  C   C12       1.0  0.21262  0.89830  0.13693  1.0000
  C   C13       1.0  0.71262  0.60170  0.63693  1.0000
  C   C14       1.0  0.28738  0.60170  0.86307  1.0000
  C   C15       1.0  0.21262  0.10170  0.63693  1.0000
  C   C16       1.0  0.78738  0.10170  0.86307  1.0000
  H   H9        1.0  0.27330  0.45550  0.33620  1.0000
  H   H10       1.0  0.72670  0.45550  0.16380  1.0000
  H   H11       1.0  0.77330  0.95550  0.33620  1.0000
  H   H12       1.0  0.22670  0.95550  0.16380  1.0000
  H   H13       1.0  0.72670  0.54450  0.66380  1.0000
  H   H14       1.0  0.27330  0.54450  0.83620  1.0000
  H   H15       1.0  0.22670  0.04450  0.66380  1.0000
  H   H16       1.0  0.77330  0.04450  0.83620  1.0000
  C   C17       1.0  0.24285  0.43327  0.13225  1.0000
  C   C18       1.0  0.75715  0.43327  0.36775  1.0000
  C   C19       1.0  0.74285  0.93327  0.13225  1.0000
  C   C20       1.0  0.25715  0.93327  0.36775  1.0000
  C   C21       1.0  0.75715  0.56673  0.86775  1.0000
  C   C22       1.0  0.24285  0.56673  0.63225  1.0000
  C   C23       1.0  0.25715  0.06673  0.86775  1.0000
  C   C24       1.0  0.74285  0.06673  0.63225  1.0000
  H   H17       1.0  0.32540  0.39030  0.14810  1.0000
  H   H18       1.0  0.67460  0.39030  0.35190  1.0000
  H   H19       1.0  0.82540  0.89030  0.14810  1.0000
  H   H20       1.0  0.17460  0.89030  0.35190  1.0000
  H   H21       1.0  0.67460  0.60970  0.85190  1.0000
  H   H22       1.0  0.32540  0.60970  0.64810  1.0000
  H   H23       1.0  0.17460  0.10970  0.85190  1.0000
  H   H24       1.0  0.82540  0.10970  0.64810  1.0000
