data_image0
_chemical_formula_structural       Co4O24C12H12
_chemical_formula_sum              "Co4 O24 C12 H12"
_cell_length_a       8.156
_cell_length_b       8.156
_cell_length_c       15.4874
_cell_angle_alpha    90
_cell_angle_beta     90
_cell_angle_gamma    120

_space_group_name_H-M_alt    "P 1"
_space_group_IT_number       1

loop_
  _space_group_symop_operation_xyz
  'x, y, z'

loop_
  _atom_site_type_symbol
  _atom_site_label
  _atom_site_symmetry_multiplicity
  _atom_site_fract_x
  _atom_site_fract_y
  _atom_site_fract_z
  _atom_site_occupancy
  Co  Co1       1.0  0.00000  0.00000  0.00000  1.0000
  Co  Co2       1.0  0.00000  0.00000  0.50000  1.0000
  Co  Co3       1.0  0.33330  0.66670  0.25000  1.0000
  Co  Co4       1.0  0.66670  0.33330  0.75000  1.0000
  O   O1        1.0  0.21195  0.21794  0.07723  1.0000
  O   O2        1.0  0.78206  0.99401  0.07723  1.0000
  O   O3        1.0  0.00599  0.78805  0.07723  1.0000
  O   O4        1.0  0.78206  0.78805  0.42277  1.0000
  O   O5        1.0  0.00599  0.21794  0.42277  1.0000
  O   O6        1.0  0.21195  0.99401  0.42277  1.0000
  O   O7        1.0  0.78805  0.78206  0.92277  1.0000
  O   O8        1.0  0.21794  0.00599  0.92277  1.0000
  O   O9        1.0  0.99401  0.21195  0.92277  1.0000
  O   O10       1.0  0.21794  0.21195  0.57723  1.0000
  O   O11       1.0  0.99401  0.78206  0.57723  1.0000
  O   O12       1.0  0.78805  0.00599  0.57723  1.0000
  O   O13       1.0  0.33323  0.45665  0.16980  1.0000
  O   O14       1.0  0.54335  0.87658  0.16980  1.0000
  O   O15       1.0  0.12342  0.66677  0.16980  1.0000
  O   O16       1.0  0.54335  0.66677  0.33020  1.0000
  O   O17       1.0  0.12342  0.45665  0.33020  1.0000
  O   O18       1.0  0.33323  0.87658  0.33020  1.0000
  O   O19       1.0  0.66677  0.54335  0.83020  1.0000
  O   O20       1.0  0.45665  0.12342  0.83020  1.0000
  O   O21       1.0  0.87658  0.33323  0.83020  1.0000
  O   O22       1.0  0.45665  0.33323  0.66980  1.0000
  O   O23       1.0  0.87658  0.54335  0.66980  1.0000
  O   O24       1.0  0.66677  0.12342  0.66980  1.0000
  C   C1        1.0  0.19990  0.32100  0.13249  1.0000
  C   C2        1.0  0.67900  0.87890  0.13249  1.0000
  C   C3        1.0  0.12110  0.80010  0.13249  1.0000
  C   C4        1.0  0.67900  0.80010  0.36751  1.0000
  C   C5        1.0  0.12110  0.32100  0.36751  1.0000
  C   C6        1.0  0.19990  0.87890  0.36751  1.0000
  C   C7        1.0  0.80010  0.67900  0.86751  1.0000
  C   C8        1.0  0.32100  0.12110  0.86751  1.0000
  C   C9        1.0  0.87890  0.19990  0.86751  1.0000
  C   C10       1.0  0.32100  0.19990  0.63249  1.0000
  C   C11       1.0  0.87890  0.67900  0.63249  1.0000
  C   C12       1.0  0.80010  0.12110  0.63249  1.0000
  H   H1        1.0  0.07850  0.29400  0.14750  1.0000
  H   H2        1.0  0.70600  0.78450  0.14750  1.0000
  H   H3        1.0  0.21550  0.92150  0.14750  1.0000
  H   H4        1.0  0.70600  0.92150  0.35250  1.0000
  H   H5        1.0  0.21550  0.29400  0.35250  1.0000
  H   H6        1.0  0.07850  0.78450  0.35250  1.0000
  H   H7        1.0  0.92150  0.70600  0.85250  1.0000
  H   H8        1.0  0.29400  0.21550  0.85250  1.0000
  H   H9        1.0  0.78450  0.07850  0.85250  1.0000
  H   H10       1.0  0.29400  0.07850  0.64750  1.0000
  H   H11       1.0  0.78450  0.70600  0.64750  1.0000
  H   H12       1.0  0.92150  0.21550  0.64750  1.0000
