data_image0
_chemical_formula_structural       Co8O48C8H8C8H8C8H8
_chemical_formula_sum              "Co8 O48 C24 H24"
_cell_length_a       7.823
_cell_length_b       14.5417
_cell_length_c       15.5175
_cell_angle_alpha    90
_cell_angle_beta     91.566
_cell_angle_gamma    90

_space_group_name_H-M_alt    "P 1"
_space_group_IT_number       1

loop_
  _space_group_symop_operation_xyz
  'x, y, z'

loop_
  _atom_site_type_symbol
  _atom_site_label
  _atom_site_symmetry_multiplicity
  _atom_site_fract_x
  _atom_site_fract_y
  _atom_site_fract_z
  _atom_site_occupancy
  Co  Co1       1.0  0.00000  0.00000  0.00000  1.0000
  Co  Co2       1.0  0.00000  0.00000  0.50000  1.0000
  Co  Co3       1.0  0.50000  0.50000  0.00000  1.0000
  Co  Co4       1.0  0.50000  0.50000  0.50000  1.0000
  Co  Co5       1.0  0.00000  0.32354  0.25000  1.0000
  Co  Co6       1.0  0.50000  0.82354  0.25000  1.0000
  Co  Co7       1.0  0.00000  0.67646  0.75000  1.0000
  Co  Co8       1.0  0.50000  0.17646  0.75000  1.0000
  O   O1        1.0  0.11553  0.09881  0.08518  1.0000
  O   O2        1.0  0.88447  0.09881  0.41482  1.0000
  O   O3        1.0  0.61553  0.59881  0.08518  1.0000
  O   O4        1.0  0.38447  0.59881  0.41482  1.0000
  O   O5        1.0  0.88447  0.90119  0.91482  1.0000
  O   O6        1.0  0.11553  0.90119  0.58518  1.0000
  O   O7        1.0  0.38447  0.40119  0.91482  1.0000
  O   O8        1.0  0.61553  0.40119  0.58518  1.0000
  O   O9        1.0  0.11236  0.21940  0.17384  1.0000
  O   O10       1.0  0.88764  0.21940  0.32616  1.0000
  O   O11       1.0  0.61236  0.71940  0.17384  1.0000
  O   O12       1.0  0.38764  0.71940  0.32616  1.0000
  O   O13       1.0  0.88764  0.78060  0.82616  1.0000
  O   O14       1.0  0.11236  0.78060  0.67384  1.0000
  O   O15       1.0  0.38764  0.28060  0.82616  1.0000
  O   O16       1.0  0.61236  0.28060  0.67384  1.0000
  O   O17       1.0  0.21022  0.32622  0.33362  1.0000
  O   O18       1.0  0.78978  0.32622  0.16638  1.0000
  O   O19       1.0  0.71022  0.82622  0.33362  1.0000
  O   O20       1.0  0.28978  0.82622  0.16638  1.0000
  O   O21       1.0  0.78978  0.67378  0.66638  1.0000
  O   O22       1.0  0.21022  0.67378  0.83362  1.0000
  O   O23       1.0  0.28978  0.17378  0.66638  1.0000
  O   O24       1.0  0.71022  0.17378  0.83362  1.0000
  O   O25       1.0  0.37995  0.39407  0.43176  1.0000
  O   O26       1.0  0.62005  0.39407  0.06824  1.0000
  O   O27       1.0  0.87995  0.89407  0.43176  1.0000
  O   O28       1.0  0.12005  0.89407  0.06824  1.0000
  O   O29       1.0  0.62005  0.60593  0.56824  1.0000
  O   O30       1.0  0.37995  0.60593  0.93176  1.0000
  O   O31       1.0  0.12005  0.10593  0.56824  1.0000
  O   O32       1.0  0.87995  0.10593  0.93176  1.0000
  O   O33       1.0  0.10488  0.42779  0.17035  1.0000
  O   O34       1.0  0.89512  0.42779  0.32965  1.0000
  O   O35       1.0  0.60488  0.92779  0.17035  1.0000
  O   O36       1.0  0.39512  0.92779  0.32965  1.0000
  O   O37       1.0  0.89512  0.57221  0.82965  1.0000
  O   O38       1.0  0.10488  0.57221  0.67035  1.0000
  O   O39       1.0  0.39512  0.07221  0.82965  1.0000
  O   O40       1.0  0.60488  0.07221  0.67035  1.0000
  O   O41       1.0  0.27535  0.49130  0.07538  1.0000
  O   O42       1.0  0.72465  0.49130  0.42462  1.0000
  O   O43       1.0  0.77535  0.99130  0.07538  1.0000
  O   O44       1.0  0.22465  0.99130  0.42462  1.0000
  O   O45       1.0  0.72465  0.50870  0.92462  1.0000
  O   O46       1.0  0.27535  0.50870  0.57538  1.0000
  O   O47       1.0  0.22465  0.00870  0.92462  1.0000
  O   O48       1.0  0.77535  0.00870  0.57538  1.0000
  C   C1        1.0  0.04021  0.15771  0.13064  1.0000
  C   C2        1.0  0.95979  0.15771  0.36936  1.0000
  C   C3        1.0  0.54021  0.65771  0.13064  1.0000
  C   C4        1.0  0.45979  0.65771  0.36936  1.0000
  C   C5        1.0  0.95979  0.84229  0.86936  1.0000
  C   C6        1.0  0.04021  0.84229  0.63064  1.0000
  C   C7        1.0  0.45979  0.34229  0.86936  1.0000
  C   C8        1.0  0.54021  0.34229  0.63064  1.0000
  H   H1        1.0  0.91900  0.15460  0.13190  1.0000
  H   H2        1.0  0.08100  0.15460  0.36810  1.0000
  H   H3        1.0  0.41900  0.65460  0.13190  1.0000
  H   H4        1.0  0.58100  0.65460  0.36810  1.0000
  H   H5        1.0  0.08100  0.84540  0.86810  1.0000
  H   H6        1.0  0.91900  0.84540  0.63190  1.0000
  H   H7        1.0  0.58100  0.34540  0.86810  1.0000
  H   H8        1.0  0.41900  0.34540  0.63190  1.0000
  C   C9        1.0  0.28220  0.39515  0.36656  1.0000
  C   C10       1.0  0.71780  0.39515  0.13344  1.0000
  C   C11       1.0  0.78220  0.89515  0.36656  1.0000
  C   C12       1.0  0.21780  0.89515  0.13344  1.0000
  C   C13       1.0  0.71780  0.60485  0.63344  1.0000
  C   C14       1.0  0.28220  0.60485  0.86656  1.0000
  C   C15       1.0  0.21780  0.10485  0.63344  1.0000
  C   C16       1.0  0.78220  0.10485  0.86656  1.0000
  H   H9        1.0  0.26090  0.45300  0.33990  1.0000
  H   H10       1.0  0.73910  0.45300  0.16010  1.0000
  H   H11       1.0  0.76090  0.95300  0.33990  1.0000
  H   H12       1.0  0.23910  0.95300  0.16010  1.0000
  H   H13       1.0  0.73910  0.54700  0.66010  1.0000
  H   H14       1.0  0.26090  0.54700  0.83990  1.0000
  H   H15       1.0  0.23910  0.04700  0.66010  1.0000
  H   H16       1.0  0.76090  0.04700  0.83990  1.0000
  C   C17       1.0  0.24406  0.43313  0.13302  1.0000
  C   C18       1.0  0.75594  0.43313  0.36698  1.0000
  C   C19       1.0  0.74406  0.93313  0.13302  1.0000
  C   C20       1.0  0.25594  0.93313  0.36698  1.0000
  C   C21       1.0  0.75594  0.56687  0.86698  1.0000
  C   C22       1.0  0.24406  0.56687  0.63302  1.0000
  C   C23       1.0  0.25594  0.06687  0.86698  1.0000
  C   C24       1.0  0.74406  0.06687  0.63302  1.0000
  H   H17       1.0  0.33170  0.39070  0.14910  1.0000
  H   H18       1.0  0.66830  0.39070  0.35090  1.0000
  H   H19       1.0  0.83170  0.89070  0.14910  1.0000
  H   H20       1.0  0.16830  0.89070  0.35090  1.0000
  H   H21       1.0  0.66830  0.60930  0.85090  1.0000
  H   H22       1.0  0.33170  0.60930  0.64910  1.0000
  H   H23       1.0  0.16830  0.10930  0.85090  1.0000
  H   H24       1.0  0.83170  0.10930  0.64910  1.0000
