data_image0
_chemical_formula_structural       Co8O48C8H8C8H8C8H8
_chemical_formula_sum              "Co8 O48 C24 H24"
_cell_length_a       7.8023
_cell_length_b       14.5514
_cell_length_c       15.5009
_cell_angle_alpha    90
_cell_angle_beta     91.61
_cell_angle_gamma    90

_space_group_name_H-M_alt    "P 1"
_space_group_IT_number       1

loop_
  _space_group_symop_operation_xyz
  'x, y, z'

loop_
  _atom_site_type_symbol
  _atom_site_label
  _atom_site_symmetry_multiplicity
  _atom_site_fract_x
  _atom_site_fract_y
  _atom_site_fract_z
  _atom_site_occupancy
  Co  Co1       1.0  0.00000  0.00000  0.00000  1.0000
  Co  Co2       1.0  0.00000  0.00000  0.50000  1.0000
  Co  Co3       1.0  0.50000  0.50000  0.00000  1.0000
  Co  Co4       1.0  0.50000  0.50000  0.50000  1.0000
  Co  Co5       1.0  0.00000  0.32264  0.25000  1.0000
  Co  Co6       1.0  0.50000  0.82264  0.25000  1.0000
  Co  Co7       1.0  0.00000  0.67736  0.75000  1.0000
  Co  Co8       1.0  0.50000  0.17736  0.75000  1.0000
  O   O1        1.0  0.11710  0.09783  0.08538  1.0000
  O   O2        1.0  0.88290  0.09783  0.41462  1.0000
  O   O3        1.0  0.61710  0.59783  0.08538  1.0000
  O   O4        1.0  0.38290  0.59783  0.41462  1.0000
  O   O5        1.0  0.88290  0.90217  0.91462  1.0000
  O   O6        1.0  0.11710  0.90217  0.58538  1.0000
  O   O7        1.0  0.38290  0.40217  0.91462  1.0000
  O   O8        1.0  0.61710  0.40217  0.58538  1.0000
  O   O9        1.0  0.11374  0.21867  0.17418  1.0000
  O   O10       1.0  0.88626  0.21867  0.32582  1.0000
  O   O11       1.0  0.61374  0.71867  0.17418  1.0000
  O   O12       1.0  0.38626  0.71867  0.32582  1.0000
  O   O13       1.0  0.88626  0.78133  0.82582  1.0000
  O   O14       1.0  0.11374  0.78133  0.67418  1.0000
  O   O15       1.0  0.38626  0.28133  0.82582  1.0000
  O   O16       1.0  0.61374  0.28133  0.67418  1.0000
  O   O17       1.0  0.20918  0.32506  0.33454  1.0000
  O   O18       1.0  0.79082  0.32506  0.16546  1.0000
  O   O19       1.0  0.70918  0.82506  0.33454  1.0000
  O   O20       1.0  0.29082  0.82506  0.16546  1.0000
  O   O21       1.0  0.79082  0.67494  0.66546  1.0000
  O   O22       1.0  0.20918  0.67494  0.83454  1.0000
  O   O23       1.0  0.29082  0.17494  0.66546  1.0000
  O   O24       1.0  0.70918  0.17494  0.83454  1.0000
  O   O25       1.0  0.37906  0.39348  0.43296  1.0000
  O   O26       1.0  0.62094  0.39348  0.06704  1.0000
  O   O27       1.0  0.87906  0.89348  0.43296  1.0000
  O   O28       1.0  0.12094  0.89348  0.06704  1.0000
  O   O29       1.0  0.62094  0.60652  0.56704  1.0000
  O   O30       1.0  0.37906  0.60652  0.93296  1.0000
  O   O31       1.0  0.12094  0.10652  0.56704  1.0000
  O   O32       1.0  0.87906  0.10652  0.93296  1.0000
  O   O33       1.0  0.10506  0.42697  0.17093  1.0000
  O   O34       1.0  0.89494  0.42697  0.32907  1.0000
  O   O35       1.0  0.60506  0.92697  0.17093  1.0000
  O   O36       1.0  0.39494  0.92697  0.32907  1.0000
  O   O37       1.0  0.89494  0.57303  0.82907  1.0000
  O   O38       1.0  0.10506  0.57303  0.67093  1.0000
  O   O39       1.0  0.39494  0.07303  0.82907  1.0000
  O   O40       1.0  0.60506  0.07303  0.67093  1.0000
  O   O41       1.0  0.27516  0.49127  0.07569  1.0000
  O   O42       1.0  0.72484  0.49127  0.42431  1.0000
  O   O43       1.0  0.77516  0.99127  0.07569  1.0000
  O   O44       1.0  0.22484  0.99127  0.42431  1.0000
  O   O45       1.0  0.72484  0.50873  0.92431  1.0000
  O   O46       1.0  0.27516  0.50873  0.57569  1.0000
  O   O47       1.0  0.22484  0.00873  0.92431  1.0000
  O   O48       1.0  0.77516  0.00873  0.57569  1.0000
  C   C1        1.0  0.04085  0.15722  0.13042  1.0000
  C   C2        1.0  0.95915  0.15722  0.36958  1.0000
  C   C3        1.0  0.54085  0.65722  0.13042  1.0000
  C   C4        1.0  0.45915  0.65722  0.36958  1.0000
  C   C5        1.0  0.95915  0.84278  0.86958  1.0000
  C   C6        1.0  0.04085  0.84278  0.63042  1.0000
  C   C7        1.0  0.45915  0.34278  0.86958  1.0000
  C   C8        1.0  0.54085  0.34278  0.63042  1.0000
  H   H1        1.0  0.91920  0.15470  0.13090  1.0000
  H   H2        1.0  0.08080  0.15470  0.36910  1.0000
  H   H3        1.0  0.41920  0.65470  0.13090  1.0000
  H   H4        1.0  0.58080  0.65470  0.36910  1.0000
  H   H5        1.0  0.08080  0.84530  0.86910  1.0000
  H   H6        1.0  0.91920  0.84530  0.63090  1.0000
  H   H7        1.0  0.58080  0.34530  0.86910  1.0000
  H   H8        1.0  0.41920  0.34530  0.63090  1.0000
  C   C9        1.0  0.28197  0.39453  0.36699  1.0000
  C   C10       1.0  0.71803  0.39453  0.13301  1.0000
  C   C11       1.0  0.78197  0.89453  0.36699  1.0000
  C   C12       1.0  0.21803  0.89453  0.13301  1.0000
  C   C13       1.0  0.71803  0.60547  0.63301  1.0000
  C   C14       1.0  0.28197  0.60547  0.86699  1.0000
  C   C15       1.0  0.21803  0.10547  0.63301  1.0000
  C   C16       1.0  0.78197  0.10547  0.86699  1.0000
  H   H9        1.0  0.26200  0.45210  0.33960  1.0000
  H   H10       1.0  0.73800  0.45210  0.16040  1.0000
  H   H11       1.0  0.76200  0.95210  0.33960  1.0000
  H   H12       1.0  0.23800  0.95210  0.16040  1.0000
  H   H13       1.0  0.73800  0.54790  0.66040  1.0000
  H   H14       1.0  0.26200  0.54790  0.83960  1.0000
  H   H15       1.0  0.23800  0.04790  0.66040  1.0000
  H   H16       1.0  0.76200  0.04790  0.83960  1.0000
  C   C17       1.0  0.24492  0.43271  0.13352  1.0000
  C   C18       1.0  0.75508  0.43271  0.36648  1.0000
  C   C19       1.0  0.74492  0.93271  0.13352  1.0000
  C   C20       1.0  0.25508  0.93271  0.36648  1.0000
  C   C21       1.0  0.75508  0.56729  0.86648  1.0000
  C   C22       1.0  0.24492  0.56729  0.63352  1.0000
  C   C23       1.0  0.25508  0.06729  0.86648  1.0000
  C   C24       1.0  0.74492  0.06729  0.63352  1.0000
  H   H17       1.0  0.33330  0.39060  0.14960  1.0000
  H   H18       1.0  0.66670  0.39060  0.35040  1.0000
  H   H19       1.0  0.83330  0.89060  0.14960  1.0000
  H   H20       1.0  0.16670  0.89060  0.35040  1.0000
  H   H21       1.0  0.66670  0.60940  0.85040  1.0000
  H   H22       1.0  0.33330  0.60940  0.64960  1.0000
  H   H23       1.0  0.16670  0.10940  0.85040  1.0000
  H   H24       1.0  0.83330  0.10940  0.64960  1.0000
