data_image0
_chemical_formula_structural       Co8O48C8H8C8H8C8H8
_chemical_formula_sum              "Co8 O48 C24 H24"
_cell_length_a       7.921
_cell_length_b       14.4606
_cell_length_c       15.5293
_cell_angle_alpha    90
_cell_angle_beta     91.155
_cell_angle_gamma    90

_space_group_name_H-M_alt    "P 1"
_space_group_IT_number       1

loop_
  _space_group_symop_operation_xyz
  'x, y, z'

loop_
  _atom_site_type_symbol
  _atom_site_label
  _atom_site_symmetry_multiplicity
  _atom_site_fract_x
  _atom_site_fract_y
  _atom_site_fract_z
  _atom_site_occupancy
  Co  Co1       1.0  0.00000  0.00000  0.00000  1.0000
  Co  Co2       1.0  0.00000  0.00000  0.50000  1.0000
  Co  Co3       1.0  0.50000  0.50000  0.00000  1.0000
  Co  Co4       1.0  0.50000  0.50000  0.50000  1.0000
  Co  Co5       1.0  0.00000  0.32643  0.25000  1.0000
  Co  Co6       1.0  0.50000  0.82643  0.25000  1.0000
  Co  Co7       1.0  0.00000  0.67358  0.75000  1.0000
  Co  Co8       1.0  0.50000  0.17357  0.75000  1.0000
  O   O1        1.0  0.11070  0.10168  0.08369  1.0000
  O   O2        1.0  0.88930  0.10168  0.41631  1.0000
  O   O3        1.0  0.61070  0.60168  0.08369  1.0000
  O   O4        1.0  0.38930  0.60168  0.41631  1.0000
  O   O5        1.0  0.88930  0.89832  0.91631  1.0000
  O   O6        1.0  0.11070  0.89832  0.58369  1.0000
  O   O7        1.0  0.38930  0.39832  0.91631  1.0000
  O   O8        1.0  0.61070  0.39832  0.58369  1.0000
  O   O9        1.0  0.10836  0.22219  0.17230  1.0000
  O   O10       1.0  0.89164  0.22219  0.32770  1.0000
  O   O11       1.0  0.60836  0.72219  0.17230  1.0000
  O   O12       1.0  0.39164  0.72219  0.32770  1.0000
  O   O13       1.0  0.89164  0.77781  0.82770  1.0000
  O   O14       1.0  0.10836  0.77781  0.67230  1.0000
  O   O15       1.0  0.39164  0.27781  0.82770  1.0000
  O   O16       1.0  0.60836  0.27781  0.67230  1.0000
  O   O17       1.0  0.21259  0.32890  0.33128  1.0000
  O   O18       1.0  0.78741  0.32890  0.16872  1.0000
  O   O19       1.0  0.71259  0.82890  0.33128  1.0000
  O   O20       1.0  0.28741  0.82890  0.16872  1.0000
  O   O21       1.0  0.78741  0.67110  0.66872  1.0000
  O   O22       1.0  0.21259  0.67110  0.83128  1.0000
  O   O23       1.0  0.28741  0.17110  0.66872  1.0000
  O   O24       1.0  0.71259  0.17110  0.83128  1.0000
  O   O25       1.0  0.38278  0.39472  0.42845  1.0000
  O   O26       1.0  0.61722  0.39472  0.07155  1.0000
  O   O27       1.0  0.88278  0.89472  0.42845  1.0000
  O   O28       1.0  0.11722  0.89472  0.07155  1.0000
  O   O29       1.0  0.61722  0.60528  0.57155  1.0000
  O   O30       1.0  0.38278  0.60528  0.92845  1.0000
  O   O31       1.0  0.11722  0.10528  0.57155  1.0000
  O   O32       1.0  0.88278  0.10528  0.92845  1.0000
  O   O33       1.0  0.10380  0.43060  0.16913  1.0000
  O   O34       1.0  0.89620  0.43060  0.33087  1.0000
  O   O35       1.0  0.60380  0.93060  0.16913  1.0000
  O   O36       1.0  0.39620  0.93060  0.33087  1.0000
  O   O37       1.0  0.89620  0.56940  0.83087  1.0000
  O   O38       1.0  0.10380  0.56940  0.66913  1.0000
  O   O39       1.0  0.39620  0.06940  0.83087  1.0000
  O   O40       1.0  0.60380  0.06940  0.66913  1.0000
  O   O41       1.0  0.27695  0.49231  0.07517  1.0000
  O   O42       1.0  0.72305  0.49231  0.42483  1.0000
  O   O43       1.0  0.77695  0.99231  0.07517  1.0000
  O   O44       1.0  0.22305  0.99231  0.42483  1.0000
  O   O45       1.0  0.72305  0.50769  0.92483  1.0000
  O   O46       1.0  0.27695  0.50769  0.57517  1.0000
  O   O47       1.0  0.22305  0.00769  0.92483  1.0000
  O   O48       1.0  0.77695  0.00769  0.57517  1.0000
  C   C1        1.0  0.03869  0.15885  0.13116  1.0000
  C   C2        1.0  0.96131  0.15885  0.36884  1.0000
  C   C3        1.0  0.53869  0.65885  0.13116  1.0000
  C   C4        1.0  0.46131  0.65885  0.36884  1.0000
  C   C5        1.0  0.96131  0.84115  0.86884  1.0000
  C   C6        1.0  0.03869  0.84115  0.63116  1.0000
  C   C7        1.0  0.46131  0.34115  0.86884  1.0000
  C   C8        1.0  0.53869  0.34115  0.63116  1.0000
  H   H1        1.0  0.92230  0.15330  0.13600  1.0000
  H   H2        1.0  0.07770  0.15330  0.36400  1.0000
  H   H3        1.0  0.42230  0.65330  0.13600  1.0000
  H   H4        1.0  0.57770  0.65330  0.36400  1.0000
  H   H5        1.0  0.07770  0.84670  0.86400  1.0000
  H   H6        1.0  0.92230  0.84670  0.63600  1.0000
  H   H7        1.0  0.57770  0.34670  0.86400  1.0000
  H   H8        1.0  0.42230  0.34670  0.63600  1.0000
  C   C9        1.0  0.28316  0.39655  0.36592  1.0000
  C   C10       1.0  0.71684  0.39655  0.13408  1.0000
  C   C11       1.0  0.78316  0.89655  0.36592  1.0000
  C   C12       1.0  0.21684  0.89655  0.13408  1.0000
  C   C13       1.0  0.71684  0.60345  0.63408  1.0000
  C   C14       1.0  0.28316  0.60345  0.86592  1.0000
  C   C15       1.0  0.21684  0.10345  0.63408  1.0000
  C   C16       1.0  0.78316  0.10345  0.86592  1.0000
  H   H9        1.0  0.25870  0.45430  0.34250  1.0000
  H   H10       1.0  0.74130  0.45430  0.15750  1.0000
  H   H11       1.0  0.75870  0.95430  0.34250  1.0000
  H   H12       1.0  0.24130  0.95430  0.15750  1.0000
  H   H13       1.0  0.74130  0.54570  0.65750  1.0000
  H   H14       1.0  0.25870  0.54570  0.84250  1.0000
  H   H15       1.0  0.24130  0.04570  0.65750  1.0000
  H   H16       1.0  0.75870  0.04570  0.84250  1.0000
  C   C17       1.0  0.24119  0.43472  0.13205  1.0000
  C   C18       1.0  0.75881  0.43472  0.36795  1.0000
  C   C19       1.0  0.74119  0.93472  0.13205  1.0000
  C   C20       1.0  0.25881  0.93472  0.36795  1.0000
  C   C21       1.0  0.75881  0.56528  0.86795  1.0000
  C   C22       1.0  0.24119  0.56528  0.63205  1.0000
  C   C23       1.0  0.25881  0.06528  0.86795  1.0000
  C   C24       1.0  0.74119  0.06528  0.63205  1.0000
  H   H17       1.0  0.32360  0.39180  0.14780  1.0000
  H   H18       1.0  0.67640  0.39180  0.35220  1.0000
  H   H19       1.0  0.82360  0.89180  0.14780  1.0000
  H   H20       1.0  0.17640  0.89180  0.35220  1.0000
  H   H21       1.0  0.67640  0.60820  0.85220  1.0000
  H   H22       1.0  0.32360  0.60820  0.64780  1.0000
  H   H23       1.0  0.17640  0.10820  0.85220  1.0000
  H   H24       1.0  0.82360  0.10820  0.64780  1.0000
