data_image0
_chemical_formula_structural       Pb4O32N8C4H4C4H4C2H4C2H4C4H4C4H4C4H4C4H4C2H4C2H4C4H4C4H4
_chemical_formula_sum              "Pb4 O32 N8 C40 H48"
_cell_length_a       10.641
_cell_length_b       13.308
_cell_length_c       14.352
_cell_angle_alpha    95.47
_cell_angle_beta     103.6
_cell_angle_gamma    110.86

_space_group_name_H-M_alt    "P 1"
_space_group_IT_number       1

loop_
  _space_group_symop_operation_xyz
  'x, y, z'

loop_
  _atom_site_type_symbol
  _atom_site_label
  _atom_site_symmetry_multiplicity
  _atom_site_fract_x
  _atom_site_fract_y
  _atom_site_fract_z
  _atom_site_occupancy
  Pb  Pb1       1.0  0.40601  0.36867  0.64791  1.0000
  Pb  Pb2       1.0  0.59399  0.63133  0.35209  1.0000
  Pb  Pb3       1.0  0.94033  0.83429  0.63606  1.0000
  Pb  Pb4       1.0  0.05967  0.16571  0.36394  1.0000
  O   O1        1.0  0.61566  0.50849  0.61343  1.0000
  O   O2        1.0  0.38434  0.49151  0.38657  1.0000
  O   O3        1.0  0.66787  0.66924  0.56371  1.0000
  O   O4        1.0  0.33213  0.33076  0.43629  1.0000
  O   O5        1.0  0.21846  0.45118  0.61739  1.0000
  O   O6        1.0  0.78154  0.54882  0.38261  1.0000
  O   O7        1.0  0.12113  0.52740  0.70611  1.0000
  O   O8        1.0  0.87887  0.47260  0.29389  1.0000
  O   O9        1.0  0.57843  0.25999  0.67287  1.0000
  O   O10       1.0  0.42157  0.74001  0.32713  1.0000
  O   O11       1.0  0.80850  0.30188  0.73799  1.0000
  O   O12       1.0  0.19150  0.69812  0.26201  1.0000
  O   O13       1.0  0.28031  0.32214  0.78130  1.0000
  O   O14       1.0  0.71969  0.67786  0.21870  1.0000
  O   O15       1.0  0.28593  0.25839  0.91856  1.0000
  O   O16       1.0  0.71407  0.74161  0.08144  1.0000
  O   O17       1.0  0.95441  0.70009  0.75053  1.0000
  O   O18       1.0  0.04559  0.29991  0.24947  1.0000
  O   O19       1.0  0.95272  0.66245  0.89802  1.0000
  O   O20       1.0  0.04728  0.33755  0.10198  1.0000
  O   O21       1.0  0.79295  0.92147  0.71418  1.0000
  O   O22       1.0  0.20705  0.07853  0.28582  1.0000
  O   O23       1.0  0.83613  0.08817  0.78982  1.0000
  O   O24       1.0  0.16387  0.91183  0.21018  1.0000
  O   O25       1.0  0.06861  0.73098  0.54972  1.0000
  O   O26       1.0  0.93139  0.26902  0.45028  1.0000
  O   O27       1.0  0.27172  0.71718  0.55212  1.0000
  O   O28       1.0  0.72828  0.28282  0.44788  1.0000
  O   O29       1.0  0.04278  0.04011  0.62007  1.0000
  O   O30       1.0  0.95722  0.95989  0.37993  1.0000
  O   O31       1.0  0.20089  0.14987  0.55720  1.0000
  O   O32       1.0  0.79911  0.85013  0.44280  1.0000
  N   N1        1.0  0.48368  0.56624  0.73887  1.0000
  N   N2        1.0  0.51632  0.43376  0.26113  1.0000
  N   N3        1.0  0.56971  0.39929  0.82475  1.0000
  N   N4        1.0  0.43029  0.60071  0.17525  1.0000
  N   N5        1.0  0.04186  0.92163  0.82085  1.0000
  N   N6        1.0  0.95814  0.07837  0.17915  1.0000
  N   N7        1.0  0.21320  0.93085  0.68318  1.0000
  N   N8        1.0  0.78680  0.06915  0.31682  1.0000
  C   C1        1.0  0.60932  0.60077  0.61098  1.0000
  C   C2        1.0  0.39068  0.39923  0.38902  1.0000
  C   C3        1.0  0.52239  0.63512  0.66746  1.0000
  C   C4        1.0  0.47761  0.36488  0.33254  1.0000
  H   H1        1.0  0.57679  0.71289  0.70296  1.0000
  H   H2        1.0  0.42321  0.28711  0.29704  1.0000
  H   H3        1.0  0.43402  0.63145  0.62079  1.0000
  H   H4        1.0  0.56598  0.36855  0.37921  1.0000
  C   C5        1.0  0.22450  0.51366  0.68957  1.0000
  C   C6        1.0  0.77550  0.48634  0.31043  1.0000
  C   C7        1.0  0.36462  0.57817  0.76673  1.0000
  C   C8        1.0  0.63538  0.42183  0.23327  1.0000
  H   H5        1.0  0.38032  0.65753  0.77957  1.0000
  H   H6        1.0  0.61968  0.34247  0.22043  1.0000
  H   H7        1.0  0.36048  0.55087  0.82894  1.0000
  H   H8        1.0  0.63952  0.44913  0.17106  1.0000
  C   C9        1.0  0.60879  0.59396  0.82377  1.0000
  C   C10       1.0  0.39121  0.40604  0.17623  1.0000
  H   H9        1.0  0.62783  0.66553  0.86522  1.0000
  H   H10       1.0  0.37217  0.33447  0.13478  1.0000
  H   H11       1.0  0.69286  0.60201  0.80065  1.0000
  H   H12       1.0  0.30714  0.39799  0.19935  1.0000
  C   C11       1.0  0.59023  0.50406  0.88334  1.0000
  C   C12       1.0  0.40977  0.49594  0.11666  1.0000
  H   H13       1.0  0.67328  0.52509  0.94216  1.0000
  H   H14       1.0  0.32672  0.47491  0.05784  1.0000
  H   H15       1.0  0.50573  0.49524  0.90615  1.0000
  H   H16       1.0  0.49427  0.50476  0.09385  1.0000
  C   C13       1.0  0.69606  0.31253  0.73727  1.0000
  C   C14       1.0  0.30394  0.68747  0.26273  1.0000
  C   C15       1.0  0.70562  0.39641  0.82062  1.0000
  C   C16       1.0  0.29438  0.60359  0.17938  1.0000
  H   H17       1.0  0.75167  0.38006  0.88318  1.0000
  H   H18       1.0  0.24833  0.61994  0.11682  1.0000
  H   H19       1.0  0.76748  0.47095  0.81490  1.0000
  H   H20       1.0  0.23252  0.52905  0.18510  1.0000
  C   C17       1.0  0.34237  0.29539  0.85573  1.0000
  C   C18       1.0  0.65763  0.70461  0.14427  1.0000
  C   C19       1.0  0.49416  0.30894  0.86735  1.0000
  C   C20       1.0  0.50584  0.69106  0.13265  1.0000
  H   H21       1.0  0.54534  0.32462  0.93851  1.0000
  H   H22       1.0  0.45466  0.67538  0.06149  1.0000
  H   H23       1.0  0.49570  0.23909  0.83613  1.0000
  H   H24       1.0  0.50430  0.76091  0.16387  1.0000
  C   C21       1.0  0.95982  0.72526  0.83725  1.0000
  C   C22       1.0  0.04018  0.27474  0.16275  1.0000
  C   C23       1.0  0.97110  0.84095  0.87439  1.0000
  C   C24       1.0  0.02890  0.15905  0.12561  1.0000
  H   H25       1.0  0.87390  0.83821  0.86616  1.0000
  H   H26       1.0  0.12610  0.16179  0.13384  1.0000
  H   H27       1.0  0.02369  0.86550  0.94554  1.0000
  H   H28       1.0  0.97631  0.13450  0.05446  1.0000
  C   C25       1.0  0.86633  0.00617  0.77425  1.0000
  C   C26       1.0  0.13367  0.99383  0.22575  1.0000
  C   C27       1.0  0.01264  0.02045  0.83674  1.0000
  C   C28       1.0  0.98736  0.97955  0.16326  1.0000
  H   H29       1.0  0.08602  0.08155  0.82013  1.0000
  H   H30       1.0  0.91398  0.91845  0.17987  1.0000
  H   H31       1.0  0.01982  0.04038  0.90731  1.0000
  H   H32       1.0  0.98018  0.95962  0.09269  1.0000
  C   C29       1.0  0.19408  0.94611  0.85166  1.0000
  C   C30       1.0  0.80592  0.05389  0.14834  1.0000
  H   H33       1.0  0.21017  0.87727  0.85868  1.0000
  H   H34       1.0  0.78983  0.12273  0.14132  1.0000
  H   H35       1.0  0.23580  0.99595  0.91734  1.0000
  H   H36       1.0  0.76420  0.00405  0.08266  1.0000
  C   C31       1.0  0.26807  0.00046  0.78154  1.0000
  C   C32       1.0  0.73193  0.99954  0.21846  1.0000
  H   H37       1.0  0.25771  0.07183  0.77735  1.0000
  H   H38       1.0  0.74229  0.92817  0.22265  1.0000
  H   H39       1.0  0.37051  0.01617  0.80645  1.0000
  H   H40       1.0  0.62949  0.98383  0.19355  1.0000
  C   C33       1.0  0.19882  0.75866  0.58609  1.0000
  C   C34       1.0  0.80118  0.24134  0.41391  1.0000
  C   C35       1.0  0.27492  0.84774  0.67890  1.0000
  C   C36       1.0  0.72508  0.15226  0.32110  1.0000
  H   H41       1.0  0.28055  0.81416  0.73838  1.0000
  H   H42       1.0  0.71945  0.18584  0.26162  1.0000
  H   H43       1.0  0.37245  0.88657  0.67481  1.0000
  H   H44       1.0  0.62755  0.11343  0.32519  1.0000
  C   C37       1.0  0.15486  0.06958  0.59536  1.0000
  C   C38       1.0  0.84514  0.93042  0.40464  1.0000
  C   C39       1.0  0.24271  0.99962  0.60964  1.0000
  C   C40       1.0  0.75729  0.00038  0.39036  1.0000
  H   H45       1.0  0.22348  0.95085  0.54608  1.0000
  H   H46       1.0  0.77652  0.04915  0.45392  1.0000
  H   H47       1.0  0.34471  0.04883  0.63141  1.0000
  H   H48       1.0  0.65529  0.95117  0.36859  1.0000
