data_image0
_chemical_formula_structural       In2O24N2C14H6C2H6C2H6C2H4C4H2C2H2C4H2C2H2C4H4C4H2C2H2C4H2C2H2C4H4C4H2C2H2C4H2C2H2C4H2C2H6C2H6C2H2
_chemical_formula_sum              "In2 O24 N2 C74 H70"
_cell_length_a       9.08
_cell_length_b       12.01
_cell_length_c       18.1
_cell_angle_alpha    82.9
_cell_angle_beta     86.4
_cell_angle_gamma    70.9

_space_group_name_H-M_alt    "P 1"
_space_group_IT_number       1

loop_
  _space_group_symop_operation_xyz
  'x, y, z'

loop_
  _atom_site_type_symbol
  _atom_site_label
  _atom_site_symmetry_multiplicity
  _atom_site_fract_x
  _atom_site_fract_y
  _atom_site_fract_z
  _atom_site_occupancy
  In  In1       1.0  0.26970  0.29697  0.36401  1.0000
  In  In2       1.0  0.73030  0.70303  0.63599  1.0000
  O   O1        1.0  0.29730  0.26710  0.81820  1.0000
  O   O2        1.0  0.70270  0.73290  0.18180  1.0000
  O   O3        1.0  0.20740  0.95300  0.12420  1.0000
  O   O4        1.0  0.79260  0.04700  0.87580  1.0000
  O   O5        1.0  0.61170  0.26710  0.08000  1.0000
  O   O6        1.0  0.38830  0.73290  0.92000  1.0000
  O   O7        1.0  0.38880  0.28230  0.47010  1.0000
  O   O8        1.0  0.61120  0.71770  0.52990  1.0000
  O   O9        1.0  0.13390  0.36050  0.47300  1.0000
  O   O10       1.0  0.86610  0.63950  0.52700  1.0000
  O   O11       1.0  0.31270  0.44640  0.30580  1.0000
  O   O12       1.0  0.68730  0.55360  0.69420  1.0000
  O   O13       1.0  0.25760  0.56090  0.39940  1.0000
  O   O14       1.0  0.74240  0.43910  0.60060  1.0000
  O   O15       1.0  0.20180  0.26440  0.25090  1.0000
  O   O16       1.0  0.79820  0.73560  0.74910  1.0000
  O   O17       1.0  0.01780  0.36070  0.32660  1.0000
  O   O18       1.0  0.98220  0.63930  0.67340  1.0000
  O   O19       1.0  0.50580  0.18970  0.32700  1.0000
  O   O20       1.0  0.49420  0.81030  0.67300  1.0000
  O   O21       1.0  0.23690  0.13440  0.41050  1.0000
  O   O22       1.0  0.76310  0.86560  0.58950  1.0000
  O   O23       1.0  0.23000  0.95220  0.41010  1.0000
  O   O24       1.0  0.77000  0.04780  0.58990  1.0000
  N   N1        1.0  0.73460  0.04290  0.35220  1.0000
  N   N2        1.0  0.26540  0.95710  0.64780  1.0000
  C   C1        1.0  0.22870  0.24840  0.94390  1.0000
  C   C2        1.0  0.77130  0.75160  0.05610  1.0000
  C   C3        1.0  0.22380  0.13380  0.96640  1.0000
  C   C4        1.0  0.77620  0.86620  0.03360  1.0000
  C   C5        1.0  0.30140  0.07160  0.03150  1.0000
  C   C6        1.0  0.69860  0.92840  0.96850  1.0000
  C   C7        1.0  0.37500  0.12560  0.07540  1.0000
  C   C8        1.0  0.62500  0.87440  0.92460  1.0000
  C   C9        1.0  0.37280  0.24100  0.05410  1.0000
  C   C10       1.0  0.62720  0.75900  0.94590  1.0000
  C   C11       1.0  0.30340  0.30180  0.98760  1.0000
  C   C12       1.0  0.69660  0.69820  0.01240  1.0000
  C   C13       1.0  0.13920  0.07760  0.92030  1.0000
  C   C14       1.0  0.86080  0.92240  0.07970  1.0000
  H   H1        1.0  0.14690  0.99970  0.94360  1.0000
  H   H2        1.0  0.85310  0.00030  0.05640  1.0000
  H   H3        1.0  0.18580  0.07220  0.87120  1.0000
  H   H4        1.0  0.81420  0.92780  0.12880  1.0000
  H   H5        1.0  0.03150  0.12550  0.91700  1.0000
  H   H6        1.0  0.96850  0.87450  0.08300  1.0000
  C   C15       1.0  0.45620  0.05650  0.14630  1.0000
  C   C16       1.0  0.54380  0.94350  0.85370  1.0000
  H   H7        1.0  0.44560  0.97890  0.15270  1.0000
  H   H8        1.0  0.55440  0.02110  0.84730  1.0000
  H   H9        1.0  0.40920  0.09770  0.18840  1.0000
  H   H10       1.0  0.59080  0.90230  0.81160  1.0000
  H   H11       1.0  0.56470  0.04940  0.14250  1.0000
  H   H12       1.0  0.43530  0.95060  0.85750  1.0000
  C   C17       1.0  0.31840  0.42230  0.96080  1.0000
  C   C18       1.0  0.68160  0.57770  0.03920  1.0000
  H   H13       1.0  0.26420  0.45280  0.91500  1.0000
  H   H14       1.0  0.73580  0.54720  0.08500  1.0000
  H   H15       1.0  0.42650  0.41500  0.95270  1.0000
  H   H16       1.0  0.57350  0.58500  0.04730  1.0000
  H   H17       1.0  0.27390  0.47570  0.99770  1.0000
  H   H18       1.0  0.72610  0.52430  0.00230  1.0000
  C   C19       1.0  0.16750  0.31120  0.86870  1.0000
  C   C20       1.0  0.83250  0.68880  0.13130  1.0000
  H   H19       1.0  0.07750  0.29150  0.85590  1.0000
  H   H20       1.0  0.92250  0.70850  0.14410  1.0000
  H   H21       1.0  0.13890  0.39650  0.86830  1.0000
  H   H22       1.0  0.86110  0.60350  0.13170  1.0000
  C   C21       1.0  0.27820  0.28660  0.74330  1.0000
  C   C22       1.0  0.72180  0.71340  0.25670  1.0000
  C   C23       1.0  0.13820  0.35380  0.70920  1.0000
  C   C24       1.0  0.86180  0.64620  0.29080  1.0000
  H   H23       1.0  0.05000  0.38980  0.73730  1.0000
  H   H24       1.0  0.95000  0.61020  0.26270  1.0000
  C   C25       1.0  0.13460  0.36520  0.63140  1.0000
  C   C26       1.0  0.86540  0.63480  0.36860  1.0000
  H   H25       1.0  0.04210  0.40830  0.60760  1.0000
  H   H26       1.0  0.95790  0.59170  0.39240  1.0000
  C   C27       1.0  0.26690  0.31310  0.58900  1.0000
  C   C28       1.0  0.73310  0.68690  0.41100  1.0000
  C   C29       1.0  0.40560  0.24760  0.62460  1.0000
  C   C30       1.0  0.59440  0.75240  0.37540  1.0000
  H   H27       1.0  0.49460  0.21220  0.59670  1.0000
  H   H28       1.0  0.50540  0.78780  0.40330  1.0000
  C   C31       1.0  0.40990  0.23580  0.70100  1.0000
  C   C32       1.0  0.59010  0.76420  0.29900  1.0000
  H   H29       1.0  0.50270  0.19300  0.72470  1.0000
  H   H30       1.0  0.49730  0.80700  0.27530  1.0000
  C   C33       1.0  0.26050  0.32110  0.50690  1.0000
  C   C34       1.0  0.73950  0.67890  0.49310  1.0000
  C   C35       1.0  0.30210  0.94700  0.05670  1.0000
  C   C36       1.0  0.69790  0.05300  0.94330  1.0000
  H   H31       1.0  0.25910  0.91690  0.01880  1.0000
  H   H32       1.0  0.74090  0.08310  0.98120  1.0000
  H   H33       1.0  0.40770  0.89490  0.06620  1.0000
  H   H34       1.0  0.59230  0.10510  0.93380  1.0000
  C   C37       1.0  0.22770  0.85040  0.17080  1.0000
  C   C38       1.0  0.77230  0.14960  0.82920  1.0000
  C   C39       1.0  0.28740  0.73770  0.14750  1.0000
  C   C40       1.0  0.71260  0.26230  0.85250  1.0000
  H   H35       1.0  0.31710  0.72780  0.09800  1.0000
  H   H36       1.0  0.68290  0.27220  0.90200  1.0000
  C   C41       1.0  0.30140  0.63990  0.20030  1.0000
  C   C42       1.0  0.69860  0.36010  0.79970  1.0000
  H   H37       1.0  0.33950  0.56420  0.18520  1.0000
  H   H38       1.0  0.66050  0.43580  0.81480  1.0000
  C   C43       1.0  0.26020  0.65250  0.27490  1.0000
  C   C44       1.0  0.73980  0.34750  0.72510  1.0000
  C   C45       1.0  0.20170  0.76620  0.29610  1.0000
  C   C46       1.0  0.79830  0.23380  0.70390  1.0000
  H   H39       1.0  0.17410  0.77640  0.34580  1.0000
  H   H40       1.0  0.82590  0.22360  0.65420  1.0000
  C   C47       1.0  0.18360  0.86420  0.24500  1.0000
  C   C48       1.0  0.81640  0.13580  0.75500  1.0000
  H   H41       1.0  0.14200  0.93980  0.26010  1.0000
  H   H42       1.0  0.85800  0.06020  0.73990  1.0000
  C   C49       1.0  0.27820  0.54670  0.33240  1.0000
  C   C50       1.0  0.72180  0.45330  0.66760  1.0000
  C   C51       1.0  0.44820  0.29900  0.10330  1.0000
  C   C52       1.0  0.55180  0.70100  0.89670  1.0000
  H   H43       1.0  0.39960  0.38440  0.09700  1.0000
  H   H44       1.0  0.60040  0.61560  0.90300  1.0000
  H   H45       1.0  0.43800  0.27040  0.15520  1.0000
  H   H46       1.0  0.56200  0.72960  0.84480  1.0000
  C   C53       1.0  0.71260  0.28880  0.12540  1.0000
  C   C54       1.0  0.28740  0.71120  0.87460  1.0000
  C   C55       1.0  0.66750  0.34900  0.18870  1.0000
  C   C56       1.0  0.33250  0.65100  0.81130  1.0000
  H   H47       1.0  0.56260  0.38030  0.20200  1.0000
  H   H48       1.0  0.43740  0.61970  0.79800  1.0000
  C   C57       1.0  0.78120  0.36110  0.23110  1.0000
  C   C58       1.0  0.21880  0.63890  0.76890  1.0000
  H   H49       1.0  0.75150  0.40380  0.27210  1.0000
  H   H50       1.0  0.24850  0.59620  0.72790  1.0000
  C   C59       1.0  0.93710  0.31180  0.21460  1.0000
  C   C60       1.0  0.06290  0.68820  0.78540  1.0000
  C   C61       1.0  0.98190  0.25270  0.15090  1.0000
  C   C62       1.0  0.01810  0.74730  0.84910  1.0000
  H   H51       1.0  0.08710  0.22030  0.13840  1.0000
  H   H52       1.0  0.91290  0.77970  0.86160  1.0000
  C   C63       1.0  0.87020  0.24250  0.10650  1.0000
  C   C64       1.0  0.12980  0.75750  0.89350  1.0000
  H   H53       1.0  0.90020  0.20440  0.06360  1.0000
  H   H54       1.0  0.09980  0.79560  0.93640  1.0000
  C   C65       1.0  0.05760  0.31450  0.26570  1.0000
  C   C66       1.0  0.94240  0.68550  0.73430  1.0000
  C   C67       1.0  0.60030  0.11510  0.37190  1.0000
  C   C68       1.0  0.39970  0.88490  0.62810  1.0000
  H   H55       1.0  0.57200  0.11170  0.42220  1.0000
  H   H56       1.0  0.42800  0.88830  0.57780  1.0000
  C   C69       1.0  0.83970  0.96070  0.40690  1.0000
  C   C70       1.0  0.16030  0.03930  0.59310  1.0000
  H   H57       1.0  0.93240  0.91540  0.38200  1.0000
  H   H58       1.0  0.06760  0.08460  0.61800  1.0000
  H   H59       1.0  0.78890  0.90810  0.43290  1.0000
  H   H60       1.0  0.21110  0.09190  0.56710  1.0000
  H   H61       1.0  0.86680  0.00440  0.44180  1.0000
  H   H62       1.0  0.13320  0.99560  0.55820  1.0000
  C   C71       1.0  0.78390  0.03820  0.27470  1.0000
  C   C72       1.0  0.21610  0.96180  0.72530  1.0000
  H   H63       1.0  0.88560  0.98050  0.27110  1.0000
  H   H64       1.0  0.11440  0.01950  0.72890  1.0000
  H   H65       1.0  0.78770  0.11460  0.25360  1.0000
  H   H66       1.0  0.21230  0.88540  0.74640  1.0000
  H   H67       1.0  0.71120  0.01640  0.24810  1.0000
  H   H68       1.0  0.28880  0.98360  0.75190  1.0000
  C   C73       1.0  0.25730  0.04200  0.38160  1.0000
  C   C74       1.0  0.74270  0.95800  0.61840  1.0000
  H   H69       1.0  0.34590  0.02090  0.33420  1.0000
  H   H70       1.0  0.65410  0.97910  0.66580  1.0000
