data_image0
_chemical_formula_structural       Cu4O24C4H4C8H8
_chemical_formula_sum              "Cu4 O24 C12 H12"
_cell_length_a       11.086
_cell_length_b       8.4489
_cell_length_c       8.2715
_cell_angle_alpha    90
_cell_angle_beta     94.553
_cell_angle_gamma    90

_space_group_name_H-M_alt    "P 1"
_space_group_IT_number       1

loop_
  _space_group_symop_operation_xyz
  'x, y, z'

loop_
  _atom_site_type_symbol
  _atom_site_label
  _atom_site_symmetry_multiplicity
  _atom_site_fract_x
  _atom_site_fract_y
  _atom_site_fract_z
  _atom_site_occupancy
  Cu  Cu1       1.0  0.50000  0.50000  0.50000  1.0000
  Cu  Cu2       1.0  0.00000  0.50000  0.50000  1.0000
  Cu  Cu3       1.0  0.00000  0.00000  0.00000  1.0000
  Cu  Cu4       1.0  0.50000  0.00000  0.00000  1.0000
  O   O1        1.0  0.34940  0.61900  0.50850  1.0000
  O   O2        1.0  0.15060  0.61900  0.49150  1.0000
  O   O3        1.0  0.84940  0.11900  0.00850  1.0000
  O   O4        1.0  0.65060  0.11900  0.99150  1.0000
  O   O5        1.0  0.65060  0.38100  0.49150  1.0000
  O   O6        1.0  0.84940  0.38100  0.50850  1.0000
  O   O7        1.0  0.15060  0.88100  0.99150  1.0000
  O   O8        1.0  0.34940  0.88100  0.00850  1.0000
  O   O9        1.0  0.41930  0.21900  0.11280  1.0000
  O   O10       1.0  0.08070  0.21900  0.88720  1.0000
  O   O11       1.0  0.91930  0.71900  0.61280  1.0000
  O   O12       1.0  0.58070  0.71900  0.38720  1.0000
  O   O13       1.0  0.58070  0.78100  0.88720  1.0000
  O   O14       1.0  0.91930  0.78100  0.11280  1.0000
  O   O15       1.0  0.08070  0.28100  0.38720  1.0000
  O   O16       1.0  0.41930  0.28100  0.61280  1.0000
  O   O17       1.0  0.43620  0.41570  0.28910  1.0000
  O   O18       1.0  0.06380  0.41570  0.71090  1.0000
  O   O19       1.0  0.93620  0.91570  0.78910  1.0000
  O   O20       1.0  0.56380  0.91570  0.21090  1.0000
  O   O21       1.0  0.56380  0.58430  0.71090  1.0000
  O   O22       1.0  0.93620  0.58430  0.28910  1.0000
  O   O23       1.0  0.06380  0.08430  0.21090  1.0000
  O   O24       1.0  0.43620  0.08430  0.78910  1.0000
  C   C1        1.0  0.25000  0.54840  0.50000  1.0000
  C   C2        1.0  0.75000  0.04840  0.00000  1.0000
  C   C3        1.0  0.75000  0.45160  0.50000  1.0000
  C   C4        1.0  0.25000  0.95160  0.00000  1.0000
  H   H1        1.0  0.25000  0.43834  0.50000  1.0000
  H   H2        1.0  0.75000  0.93834  0.00000  1.0000
  H   H3        1.0  0.75000  0.56166  0.50000  1.0000
  H   H4        1.0  0.25000  0.06166  0.00000  1.0000
  C   C5        1.0  0.46550  0.28300  0.23860  1.0000
  C   C6        1.0  0.03450  0.28300  0.76140  1.0000
  C   C7        1.0  0.96550  0.78300  0.73860  1.0000
  C   C8        1.0  0.53450  0.78300  0.26140  1.0000
  C   C9        1.0  0.53450  0.71700  0.76140  1.0000
  C   C10       1.0  0.96550  0.71700  0.23860  1.0000
  C   C11       1.0  0.03450  0.21700  0.26140  1.0000
  C   C12       1.0  0.46550  0.21700  0.73860  1.0000
  H   H5        1.0  0.52604  0.22799  0.29923  1.0000
  H   H6        1.0  0.97396  0.22799  0.70077  1.0000
  H   H7        1.0  0.02604  0.72799  0.79923  1.0000
  H   H8        1.0  0.47396  0.72799  0.20077  1.0000
  H   H9        1.0  0.47396  0.77201  0.70077  1.0000
  H   H10       1.0  0.02604  0.77201  0.29923  1.0000
  H   H11       1.0  0.97396  0.27201  0.20077  1.0000
  H   H12       1.0  0.52604  0.27201  0.79923  1.0000
