data_image0
_chemical_formula_structural       Cu4O24C4H4C8H8
_chemical_formula_sum              "Cu4 O24 C12 H12"
_cell_length_a       11.3954
_cell_length_b       8.6694
_cell_length_c       8.7825
_cell_angle_alpha    90
_cell_angle_beta     95.884
_cell_angle_gamma    90

_space_group_name_H-M_alt    "P 1"
_space_group_IT_number       1

loop_
  _space_group_symop_operation_xyz
  'x, y, z'

loop_
  _atom_site_type_symbol
  _atom_site_label
  _atom_site_symmetry_multiplicity
  _atom_site_fract_x
  _atom_site_fract_y
  _atom_site_fract_z
  _atom_site_occupancy
  Cu  Cu1       1.0  0.50000  0.50000  0.50000  1.0000
  Cu  Cu2       1.0  0.00000  0.50000  0.50000  1.0000
  Cu  Cu3       1.0  0.00000  0.00000  0.00000  1.0000
  Cu  Cu4       1.0  0.50000  0.00000  0.00000  1.0000
  O   O1        1.0  0.34732  0.60540  0.50560  1.0000
  O   O2        1.0  0.15268  0.60540  0.49440  1.0000
  O   O3        1.0  0.84732  0.10540  0.00560  1.0000
  O   O4        1.0  0.65268  0.10540  0.99440  1.0000
  O   O5        1.0  0.65268  0.39460  0.49440  1.0000
  O   O6        1.0  0.84732  0.39460  0.50560  1.0000
  O   O7        1.0  0.15268  0.89460  0.99440  1.0000
  O   O8        1.0  0.34732  0.89460  0.00560  1.0000
  O   O9        1.0  0.42730  0.23130  0.12180  1.0000
  O   O10       1.0  0.07270  0.23130  0.87820  1.0000
  O   O11       1.0  0.92730  0.73130  0.62180  1.0000
  O   O12       1.0  0.57270  0.73130  0.37820  1.0000
  O   O13       1.0  0.57270  0.76870  0.87820  1.0000
  O   O14       1.0  0.92730  0.76870  0.12180  1.0000
  O   O15       1.0  0.07270  0.26870  0.37820  1.0000
  O   O16       1.0  0.42730  0.26870  0.62180  1.0000
  O   O17       1.0  0.43880  0.41190  0.30070  1.0000
  O   O18       1.0  0.06120  0.41190  0.69930  1.0000
  O   O19       1.0  0.93880  0.91190  0.80070  1.0000
  O   O20       1.0  0.56120  0.91190  0.19930  1.0000
  O   O21       1.0  0.56120  0.58810  0.69930  1.0000
  O   O22       1.0  0.93880  0.58810  0.30070  1.0000
  O   O23       1.0  0.06120  0.08810  0.19930  1.0000
  O   O24       1.0  0.43880  0.08810  0.80070  1.0000
  C   C1        1.0  0.25000  0.53690  0.50000  1.0000
  C   C2        1.0  0.75000  0.03690  0.00000  1.0000
  C   C3        1.0  0.75000  0.46310  0.50000  1.0000
  C   C4        1.0  0.25000  0.96310  0.00000  1.0000
  H   H1        1.0  0.25000  0.42962  0.50000  1.0000
  H   H2        1.0  0.75000  0.92962  0.00000  1.0000
  H   H3        1.0  0.75000  0.57038  0.50000  1.0000
  H   H4        1.0  0.25000  0.07038  0.00000  1.0000
  C   C5        1.0  0.47070  0.28790  0.24500  1.0000
  C   C6        1.0  0.02930  0.28790  0.75500  1.0000
  C   C7        1.0  0.97070  0.78790  0.74500  1.0000
  C   C8        1.0  0.52930  0.78790  0.25500  1.0000
  C   C9        1.0  0.52930  0.71210  0.75500  1.0000
  C   C10       1.0  0.97070  0.71210  0.24500  1.0000
  C   C11       1.0  0.02930  0.21210  0.25500  1.0000
  C   C12       1.0  0.47070  0.21210  0.74500  1.0000
  H   H5        1.0  0.53166  0.23391  0.29986  1.0000
  H   H6        1.0  0.96834  0.23391  0.70014  1.0000
  H   H7        1.0  0.03166  0.73391  0.79986  1.0000
  H   H8        1.0  0.46834  0.73391  0.20014  1.0000
  H   H9        1.0  0.46834  0.76609  0.70014  1.0000
  H   H10       1.0  0.03166  0.76609  0.29986  1.0000
  H   H11       1.0  0.96834  0.26609  0.20014  1.0000
  H   H12       1.0  0.53166  0.26609  0.79986  1.0000
