data_image0
_chemical_formula_structural       Cu4O24C4H4C8H8
_chemical_formula_sum              "Cu4 O24 C12 H12"
_cell_length_a       11.272
_cell_length_b       8.5295
_cell_length_c       8.5611
_cell_angle_alpha    90
_cell_angle_beta     95.1904
_cell_angle_gamma    90

_space_group_name_H-M_alt    "P 1"
_space_group_IT_number       1

loop_
  _space_group_symop_operation_xyz
  'x, y, z'

loop_
  _atom_site_type_symbol
  _atom_site_label
  _atom_site_symmetry_multiplicity
  _atom_site_fract_x
  _atom_site_fract_y
  _atom_site_fract_z
  _atom_site_occupancy
  Cu  Cu1       1.0  0.50000  0.50000  0.50000  1.0000
  Cu  Cu2       1.0  0.00000  0.50000  0.50000  1.0000
  Cu  Cu3       1.0  0.00000  0.00000  0.00000  1.0000
  Cu  Cu4       1.0  0.50000  0.00000  0.00000  1.0000
  O   O1        1.0  0.34801  0.61160  0.50760  1.0000
  O   O2        1.0  0.15199  0.61160  0.49240  1.0000
  O   O3        1.0  0.84801  0.11160  0.00760  1.0000
  O   O4        1.0  0.65199  0.11160  0.99240  1.0000
  O   O5        1.0  0.65199  0.38840  0.49240  1.0000
  O   O6        1.0  0.84801  0.38840  0.50760  1.0000
  O   O7        1.0  0.15199  0.88840  0.99240  1.0000
  O   O8        1.0  0.34801  0.88840  0.00760  1.0000
  O   O9        1.0  0.42450  0.22550  0.11780  1.0000
  O   O10       1.0  0.07550  0.22550  0.88220  1.0000
  O   O11       1.0  0.92450  0.72550  0.61780  1.0000
  O   O12       1.0  0.57550  0.72550  0.38220  1.0000
  O   O13       1.0  0.57550  0.77450  0.88220  1.0000
  O   O14       1.0  0.92450  0.77450  0.11780  1.0000
  O   O15       1.0  0.07550  0.27450  0.38220  1.0000
  O   O16       1.0  0.42450  0.27450  0.61780  1.0000
  O   O17       1.0  0.43770  0.41320  0.29520  1.0000
  O   O18       1.0  0.06230  0.41320  0.70480  1.0000
  O   O19       1.0  0.93770  0.91320  0.79520  1.0000
  O   O20       1.0  0.56230  0.91320  0.20480  1.0000
  O   O21       1.0  0.56230  0.58680  0.70480  1.0000
  O   O22       1.0  0.93770  0.58680  0.29520  1.0000
  O   O23       1.0  0.06230  0.08680  0.20480  1.0000
  O   O24       1.0  0.43770  0.08680  0.79520  1.0000
  C   C1        1.0  0.25000  0.54280  0.50000  1.0000
  C   C2        1.0  0.75000  0.04280  0.00000  1.0000
  C   C3        1.0  0.75000  0.45720  0.50000  1.0000
  C   C4        1.0  0.25000  0.95720  0.00000  1.0000
  H   H1        1.0  0.25000  0.43374  0.50000  1.0000
  H   H2        1.0  0.75000  0.93374  0.00000  1.0000
  H   H3        1.0  0.75000  0.56626  0.50000  1.0000
  H   H4        1.0  0.25000  0.06626  0.00000  1.0000
  C   C5        1.0  0.46880  0.28470  0.24070  1.0000
  C   C6        1.0  0.03120  0.28470  0.75930  1.0000
  C   C7        1.0  0.96880  0.78470  0.74070  1.0000
  C   C8        1.0  0.53120  0.78470  0.25930  1.0000
  C   C9        1.0  0.53120  0.71530  0.75930  1.0000
  C   C10       1.0  0.96880  0.71530  0.24070  1.0000
  C   C11       1.0  0.03120  0.21530  0.25930  1.0000
  C   C12       1.0  0.46880  0.21530  0.74070  1.0000
  H   H5        1.0  0.52972  0.22993  0.29731  1.0000
  H   H6        1.0  0.97028  0.22993  0.70269  1.0000
  H   H7        1.0  0.02972  0.72993  0.79731  1.0000
  H   H8        1.0  0.47028  0.72993  0.20269  1.0000
  H   H9        1.0  0.47028  0.77007  0.70269  1.0000
  H   H10       1.0  0.02972  0.77007  0.29731  1.0000
  H   H11       1.0  0.97028  0.27007  0.20269  1.0000
  H   H12       1.0  0.52972  0.27007  0.79731  1.0000
