data_image0
_chemical_formula_structural       Cu4O24C4H4C8H8
_chemical_formula_sum              "Cu4 O24 C12 H12"
_cell_length_a       8.833
_cell_length_b       8.7093
_cell_length_c       11.4145
_cell_angle_alpha    90
_cell_angle_beta     96.224
_cell_angle_gamma    90

_space_group_name_H-M_alt    "P 1"
_space_group_IT_number       1

loop_
  _space_group_symop_operation_xyz
  'x, y, z'

loop_
  _atom_site_type_symbol
  _atom_site_label
  _atom_site_symmetry_multiplicity
  _atom_site_fract_x
  _atom_site_fract_y
  _atom_site_fract_z
  _atom_site_occupancy
  Cu  Cu1       1.0  0.25000  0.25000  0.75000  1.0000
  Cu  Cu2       1.0  0.25000  0.25000  0.25000  1.0000
  Cu  Cu3       1.0  0.75000  0.75000  0.25000  1.0000
  Cu  Cu4       1.0  0.75000  0.75000  0.75000  1.0000
  O   O1        1.0  0.87438  0.98304  0.67759  1.0000
  O   O2        1.0  0.62562  0.98304  0.32241  1.0000
  O   O3        1.0  0.37438  0.48304  0.17759  1.0000
  O   O4        1.0  0.12562  0.48304  0.82241  1.0000
  O   O5        1.0  0.12562  0.01696  0.32241  1.0000
  O   O6        1.0  0.37438  0.01696  0.67759  1.0000
  O   O7        1.0  0.62562  0.51696  0.82241  1.0000
  O   O8        1.0  0.87438  0.51696  0.17759  1.0000
  O   O9        1.0  0.05249  0.16134  0.68894  1.0000
  O   O10       1.0  0.44751  0.16134  0.31106  1.0000
  O   O11       1.0  0.55249  0.66134  0.18894  1.0000
  O   O12       1.0  0.94751  0.66134  0.81106  1.0000
  O   O13       1.0  0.94751  0.83866  0.31106  1.0000
  O   O14       1.0  0.55249  0.83866  0.68894  1.0000
  O   O15       1.0  0.44751  0.33866  0.81106  1.0000
  O   O16       1.0  0.05249  0.33866  0.18894  1.0000
  O   O17       1.0  0.25617  0.35289  0.59692  1.0000
  O   O18       1.0  0.24383  0.35289  0.40308  1.0000
  O   O19       1.0  0.75617  0.85289  0.09692  1.0000
  O   O20       1.0  0.74383  0.85289  0.90308  1.0000
  O   O21       1.0  0.74383  0.64711  0.40308  1.0000
  O   O22       1.0  0.75617  0.64711  0.59692  1.0000
  O   O23       1.0  0.24383  0.14711  0.90308  1.0000
  O   O24       1.0  0.25617  0.14711  0.09692  1.0000
  C   C1        1.0  0.25000  0.28600  0.50000  1.0000
  C   C2        1.0  0.75000  0.78600  0.00000  1.0000
  C   C3        1.0  0.75000  0.71400  0.50000  1.0000
  C   C4        1.0  0.25000  0.21400  0.00000  1.0000
  H   H1        1.0  0.25000  0.17920  0.50000  1.0000
  H   H2        1.0  0.75000  0.67920  0.00000  1.0000
  H   H3        1.0  0.75000  0.82080  0.50000  1.0000
  H   H4        1.0  0.25000  0.32080  0.00000  1.0000
  C   C5        1.0  0.99673  0.03816  0.72145  1.0000
  C   C6        1.0  0.50327  0.03816  0.27855  1.0000
  C   C7        1.0  0.49673  0.53816  0.22145  1.0000
  C   C8        1.0  0.00327  0.53816  0.77855  1.0000
  C   C9        1.0  0.00327  0.96184  0.27855  1.0000
  C   C10       1.0  0.49673  0.96184  0.72145  1.0000
  C   C11       1.0  0.50327  0.46184  0.77855  1.0000
  C   C12       1.0  0.99673  0.46184  0.22145  1.0000
  H   H5        1.0  0.05100  0.98450  0.78270  1.0000
  H   H6        1.0  0.44900  0.98450  0.21730  1.0000
  H   H7        1.0  0.55100  0.48450  0.28270  1.0000
  H   H8        1.0  0.94900  0.48450  0.71730  1.0000
  H   H9        1.0  0.94900  0.01550  0.21730  1.0000
  H   H10       1.0  0.55100  0.01550  0.78270  1.0000
  H   H11       1.0  0.44900  0.51550  0.71730  1.0000
  H   H12       1.0  0.05100  0.51550  0.28270  1.0000
