data_image0
_chemical_formula_structural       Cu4O24C8H8C4H4
_chemical_formula_sum              "Cu4 O24 C12 H12"
_cell_length_a       13.6954
_cell_length_b       8.632
_cell_length_c       8.7693
_cell_angle_alpha    90
_cell_angle_beta     124.189
_cell_angle_gamma    90

_space_group_name_H-M_alt    "P 1"
_space_group_IT_number       1

loop_
  _space_group_symop_operation_xyz
  'x, y, z'

loop_
  _atom_site_type_symbol
  _atom_site_label
  _atom_site_symmetry_multiplicity
  _atom_site_fract_x
  _atom_site_fract_y
  _atom_site_fract_z
  _atom_site_occupancy
  Cu  Cu1       1.0  0.25000  0.25000  0.50000  1.0000
  Cu  Cu2       1.0  0.75000  0.25000  0.00000  1.0000
  Cu  Cu3       1.0  0.75000  0.75000  0.50000  1.0000
  Cu  Cu4       1.0  0.25000  0.75000  0.00000  1.0000
  O   O1        1.0  0.18913  0.33612  0.63880  1.0000
  O   O2        1.0  0.81087  0.33612  0.86120  1.0000
  O   O3        1.0  0.68913  0.83612  0.63880  1.0000
  O   O4        1.0  0.31087  0.83612  0.86120  1.0000
  O   O5        1.0  0.81087  0.66388  0.36120  1.0000
  O   O6        1.0  0.18913  0.66388  0.13880  1.0000
  O   O7        1.0  0.31087  0.16388  0.36120  1.0000
  O   O8        1.0  0.68913  0.16388  0.13880  1.0000
  O   O9        1.0  0.17722  0.51767  0.80673  1.0000
  O   O10       1.0  0.82278  0.51767  0.69327  1.0000
  O   O11       1.0  0.67722  0.01767  0.80673  1.0000
  O   O12       1.0  0.32278  0.01767  0.69327  1.0000
  O   O13       1.0  0.82278  0.48233  0.19327  1.0000
  O   O14       1.0  0.17722  0.48233  0.30673  1.0000
  O   O15       1.0  0.32278  0.98233  0.19327  1.0000
  O   O16       1.0  0.67722  0.98233  0.30673  1.0000
  O   O17       1.0  0.40238  0.35668  0.66038  1.0000
  O   O18       1.0  0.59762  0.35668  0.83962  1.0000
  O   O19       1.0  0.90238  0.85668  0.66038  1.0000
  O   O20       1.0  0.09762  0.85668  0.83962  1.0000
  O   O21       1.0  0.59762  0.64332  0.33962  1.0000
  O   O22       1.0  0.40238  0.64332  0.16038  1.0000
  O   O23       1.0  0.09762  0.14332  0.33962  1.0000
  O   O24       1.0  0.90238  0.14332  0.16038  1.0000
  C   C1        1.0  0.22086  0.46303  0.72545  1.0000
  C   C2        1.0  0.77914  0.46303  0.77455  1.0000
  C   C3        1.0  0.72086  0.96303  0.72545  1.0000
  C   C4        1.0  0.27914  0.96303  0.77455  1.0000
  C   C5        1.0  0.77914  0.53697  0.27455  1.0000
  C   C6        1.0  0.22086  0.53697  0.22545  1.0000
  C   C7        1.0  0.27914  0.03697  0.27455  1.0000
  C   C8        1.0  0.72086  0.03697  0.22545  1.0000
  H   H1        1.0  0.28140  0.52040  0.72910  1.0000
  H   H2        1.0  0.71860  0.52040  0.77090  1.0000
  H   H3        1.0  0.78140  0.02040  0.72910  1.0000
  H   H4        1.0  0.21860  0.02040  0.77090  1.0000
  H   H5        1.0  0.71860  0.47960  0.27090  1.0000
  H   H6        1.0  0.28140  0.47960  0.22910  1.0000
  H   H7        1.0  0.21860  0.97960  0.27090  1.0000
  H   H8        1.0  0.78140  0.97960  0.22910  1.0000
  C   C9        1.0  0.50000  0.28790  0.75000  1.0000
  C   C10       1.0  0.00000  0.78790  0.75000  1.0000
  C   C11       1.0  0.50000  0.71210  0.25000  1.0000
  C   C12       1.0  0.00000  0.21210  0.25000  1.0000
  H   H9        1.0  0.50000  0.17780  0.75000  1.0000
  H   H10       1.0  0.00000  0.67780  0.75000  1.0000
  H   H11       1.0  0.50000  0.82220  0.25000  1.0000
  H   H12       1.0  0.00000  0.32220  0.25000  1.0000
