data_image0
_chemical_formula_structural       Cu2Mo8N4O26C2H2C2H2C4H2C2H2C2H2C2H2C4H2C2H2
_chemical_formula_sum              "Cu2 Mo8 N4 O26 C20 H16"
_cell_length_a       7.656
_cell_length_b       10.745
_cell_length_c       12.84
_cell_angle_alpha    100.549
_cell_angle_beta     100.323
_cell_angle_gamma    109.9

_space_group_name_H-M_alt    "P 1"
_space_group_IT_number       1

loop_
  _space_group_symop_operation_xyz
  'x, y, z'

loop_
  _atom_site_type_symbol
  _atom_site_label
  _atom_site_symmetry_multiplicity
  _atom_site_fract_x
  _atom_site_fract_y
  _atom_site_fract_z
  _atom_site_occupancy
  Cu  Cu1       1.0  0.79397  0.83346  0.06172  1.0000
  Cu  Cu2       1.0  0.20603  0.16654  0.93828  1.0000
  Mo  Mo1       1.0  0.69880  0.98824  0.33478  1.0000
  Mo  Mo2       1.0  0.30120  0.01176  0.66522  1.0000
  Mo  Mo3       1.0  0.72709  0.03720  0.59081  1.0000
  Mo  Mo4       1.0  0.27291  0.96280  0.40919  1.0000
  Mo  Mo5       1.0  0.58114  0.28441  0.58997  1.0000
  Mo  Mo6       1.0  0.41886  0.71559  0.41003  1.0000
  Mo  Mo7       1.0  0.54532  0.23594  0.32749  1.0000
  Mo  Mo8       1.0  0.45468  0.76406  0.67251  1.0000
  N   N1        1.0  0.77150  0.65260  0.05230  1.0000
  N   N2        1.0  0.22850  0.34740  0.94770  1.0000
  N   N3        1.0  0.82710  0.01200  0.05430  1.0000
  N   N4        1.0  0.17290  0.98800  0.94570  1.0000
  O   O1        1.0  0.59910  0.10880  0.46264  1.0000
  O   O2        1.0  0.40090  0.89120  0.53736  1.0000
  O   O3        1.0  0.69390  0.86270  0.23040  1.0000
  O   O4        1.0  0.30610  0.13730  0.76960  1.0000
  O   O5        1.0  0.92750  0.10620  0.37470  1.0000
  O   O6        1.0  0.07250  0.89380  0.62530  1.0000
  O   O7        1.0  0.57640  0.07880  0.25176  1.0000
  O   O8        1.0  0.42360  0.92120  0.74824  1.0000
  O   O9        1.0  0.38530  0.85020  0.32945  1.0000
  O   O10       1.0  0.61470  0.14980  0.67055  1.0000
  O   O11       1.0  0.73370  0.93670  0.68254  1.0000
  O   O12       1.0  0.26630  0.06330  0.31746  1.0000
  O   O13       1.0  0.95340  0.15360  0.61710  1.0000
  O   O14       1.0  0.04660  0.84640  0.38290  1.0000
  O   O15       1.0  0.81570  0.38980  0.61500  1.0000
  O   O16       1.0  0.18430  0.61020  0.38500  1.0000
  O   O17       1.0  0.47490  0.31170  0.45387  1.0000
  O   O18       1.0  0.52510  0.68830  0.54613  1.0000
  O   O19       1.0  0.70990  0.90550  0.46010  1.0000
  O   O20       1.0  0.29010  0.09450  0.53990  1.0000
  O   O21       1.0  0.48830  0.36980  0.67420  1.0000
  O   O22       1.0  0.51170  0.63020  0.32580  1.0000
  O   O23       1.0  0.43260  0.28160  0.22380  1.0000
  O   O24       1.0  0.56740  0.71840  0.77620  1.0000
  O   O25       1.0  0.78020  0.34910  0.36390  1.0000
  O   O26       1.0  0.21980  0.65090  0.63610  1.0000
  C   C1        1.0  0.82760  0.62190  0.14510  1.0000
  C   C2        1.0  0.17240  0.37810  0.85490  1.0000
  H   H1        1.0  0.86080  0.68790  0.21110  1.0000
  H   H2        1.0  0.13920  0.31210  0.78890  1.0000
  C   C3        1.0  0.83900  0.49780  0.14840  1.0000
  C   C4        1.0  0.16100  0.50220  0.85160  1.0000
  H   H3        1.0  0.87900  0.48090  0.21530  1.0000
  H   H4        1.0  0.12100  0.51910  0.78470  1.0000
  C   C5        1.0  0.79010  0.39780  0.05100  1.0000
  C   C6        1.0  0.20990  0.60220  0.94900  1.0000
  C   C7        1.0  0.72400  0.42770  0.95520  1.0000
  C   C8        1.0  0.27600  0.57230  0.04480  1.0000
  H   H5        1.0  0.68470  0.36190  0.88850  1.0000
  H   H6        1.0  0.31530  0.63810  0.11150  1.0000
  C   C9        1.0  0.71590  0.55440  0.95750  1.0000
  C   C10       1.0  0.28410  0.44560  0.04250  1.0000
  H   H7        1.0  0.67080  0.57250  0.89210  1.0000
  H   H8        1.0  0.32920  0.42750  0.10790  1.0000
  C   C11       1.0  0.93690  0.12390  0.13610  1.0000
  C   C12       1.0  0.06310  0.87610  0.86390  1.0000
  H   H9        1.0  0.02060  0.11610  0.19430  1.0000
  H   H10       1.0  0.97940  0.88390  0.80570  1.0000
  C   C13       1.0  0.93000  0.25140  0.13670  1.0000
  C   C14       1.0  0.07000  0.74860  0.86330  1.0000
  H   H11       1.0  0.00700  0.32690  0.19540  1.0000
  H   H12       1.0  0.99300  0.67310  0.80460  1.0000
  C   C15       1.0  0.80900  0.26640  0.05040  1.0000
  C   C16       1.0  0.19100  0.73360  0.94960  1.0000
  C   C17       1.0  0.70340  0.15060  0.96330  1.0000
  C   C18       1.0  0.29660  0.84940  0.03670  1.0000
  H   H13       1.0  0.62600  0.15680  0.90140  1.0000
  H   H14       1.0  0.37400  0.84320  0.09860  1.0000
  C   C19       1.0  0.71440  0.02690  0.96950  1.0000
  C   C20       1.0  0.28560  0.97310  0.03050  1.0000
  H   H15       1.0  0.63970  0.94980  0.91160  1.0000
  H   H16       1.0  0.36030  0.05020  0.08840  1.0000
