data_image0
_chemical_formula_structural       Zn12P8O16C32H8C8H8C8H8C8O16C8O24
_chemical_formula_sum              "Zn12 P8 O56 C64 H24"
_cell_length_a       26.918
_cell_length_b       9.92
_cell_length_c       10.161
_cell_angle_alpha    90
_cell_angle_beta     112.179
_cell_angle_gamma    90

_space_group_name_H-M_alt    "P 1"
_space_group_IT_number       1

loop_
  _space_group_symop_operation_xyz
  'x, y, z'

loop_
  _atom_site_type_symbol
  _atom_site_label
  _atom_site_symmetry_multiplicity
  _atom_site_fract_x
  _atom_site_fract_y
  _atom_site_fract_z
  _atom_site_occupancy
  Zn  Zn1       1.0  0.00000  0.22811  0.75000  1.0000
  Zn  Zn2       1.0  0.50000  0.72811  0.75000  1.0000
  Zn  Zn3       1.0  0.00000  0.77189  0.25000  1.0000
  Zn  Zn4       1.0  0.50000  0.27189  0.25000  1.0000
  Zn  Zn5       1.0  0.13701  0.57870  0.26844  1.0000
  Zn  Zn6       1.0  0.86299  0.57870  0.23156  1.0000
  Zn  Zn7       1.0  0.63701  0.07870  0.26844  1.0000
  Zn  Zn8       1.0  0.36299  0.07870  0.23156  1.0000
  Zn  Zn9       1.0  0.86299  0.42130  0.73156  1.0000
  Zn  Zn10      1.0  0.13701  0.42130  0.76844  1.0000
  Zn  Zn11      1.0  0.36299  0.92130  0.73156  1.0000
  Zn  Zn12      1.0  0.63701  0.92130  0.76844  1.0000
  P   P1        1.0  0.09363  0.37398  0.01032  1.0000
  P   P2        1.0  0.90637  0.37398  0.48968  1.0000
  P   P3        1.0  0.59363  0.87398  0.01032  1.0000
  P   P4        1.0  0.40637  0.87398  0.48968  1.0000
  P   P5        1.0  0.90637  0.62602  0.98968  1.0000
  P   P6        1.0  0.09363  0.62602  0.51032  1.0000
  P   P7        1.0  0.40637  0.12602  0.98968  1.0000
  P   P8        1.0  0.59363  0.12602  0.51032  1.0000
  O   O1        1.0  0.09113  0.44800  0.13910  1.0000
  O   O2        1.0  0.90887  0.44800  0.36090  1.0000
  O   O3        1.0  0.59113  0.94800  0.13910  1.0000
  O   O4        1.0  0.40887  0.94800  0.36090  1.0000
  O   O5        1.0  0.90887  0.55200  0.86090  1.0000
  O   O6        1.0  0.09113  0.55200  0.63910  1.0000
  O   O7        1.0  0.40887  0.05200  0.86090  1.0000
  O   O8        1.0  0.59113  0.05200  0.63910  1.0000
  O   O9        1.0  0.03687  0.34880  0.90510  1.0000
  O   O10       1.0  0.96313  0.34880  0.59490  1.0000
  O   O11       1.0  0.53687  0.84880  0.90510  1.0000
  O   O12       1.0  0.46313  0.84880  0.59490  1.0000
  O   O13       1.0  0.96313  0.65120  0.09490  1.0000
  O   O14       1.0  0.03687  0.65120  0.40510  1.0000
  O   O15       1.0  0.46313  0.15120  0.09490  1.0000
  O   O16       1.0  0.53687  0.15120  0.40510  1.0000
  C   C1        1.0  0.20195  0.06730  0.15440  1.0000
  C   C2        1.0  0.79805  0.06730  0.34560  1.0000
  C   C3        1.0  0.70195  0.56730  0.15440  1.0000
  C   C4        1.0  0.29805  0.56730  0.34560  1.0000
  C   C5        1.0  0.79805  0.93270  0.84560  1.0000
  C   C6        1.0  0.20195  0.93270  0.65440  1.0000
  C   C7        1.0  0.29805  0.43270  0.84560  1.0000
  C   C8        1.0  0.70195  0.43270  0.65440  1.0000
  C   C9        1.0  0.12374  0.21190  0.07160  1.0000
  C   C10       1.0  0.87626  0.21190  0.42840  1.0000
  C   C11       1.0  0.62374  0.71190  0.07160  1.0000
  C   C12       1.0  0.37626  0.71190  0.42840  1.0000
  C   C13       1.0  0.87626  0.78810  0.92840  1.0000
  C   C14       1.0  0.12374  0.78810  0.57160  1.0000
  C   C15       1.0  0.37626  0.28810  0.92840  1.0000
  C   C16       1.0  0.62374  0.28810  0.57160  1.0000
  C   C17       1.0  0.11786  0.98580  0.15570  1.0000
  C   C18       1.0  0.88214  0.98580  0.34430  1.0000
  C   C19       1.0  0.61786  0.48580  0.15570  1.0000
  C   C20       1.0  0.38214  0.48580  0.34430  1.0000
  C   C21       1.0  0.88214  0.01420  0.84430  1.0000
  C   C22       1.0  0.11786  0.01420  0.65570  1.0000
  C   C23       1.0  0.38214  0.51420  0.84430  1.0000
  C   C24       1.0  0.61786  0.51420  0.65570  1.0000
  C   C25       1.0  0.09424  0.10770  0.10030  1.0000
  C   C26       1.0  0.90576  0.10770  0.39970  1.0000
  C   C27       1.0  0.59424  0.60770  0.10030  1.0000
  C   C28       1.0  0.40576  0.60770  0.39970  1.0000
  C   C29       1.0  0.90576  0.89230  0.89970  1.0000
  C   C30       1.0  0.09424  0.89230  0.60030  1.0000
  C   C31       1.0  0.40576  0.39230  0.89970  1.0000
  C   C32       1.0  0.59424  0.39230  0.60030  1.0000
  H   H1        1.0  0.05800  0.12080  0.08190  1.0000
  H   H2        1.0  0.94200  0.12080  0.41810  1.0000
  H   H3        1.0  0.55800  0.62080  0.08190  1.0000
  H   H4        1.0  0.44200  0.62080  0.41810  1.0000
  H   H5        1.0  0.94200  0.87920  0.91810  1.0000
  H   H6        1.0  0.05800  0.87920  0.58190  1.0000
  H   H7        1.0  0.44200  0.37920  0.91810  1.0000
  H   H8        1.0  0.55800  0.37920  0.58190  1.0000
  C   C33       1.0  0.17213  0.96490  0.18320  1.0000
  C   C34       1.0  0.82787  0.96490  0.31680  1.0000
  C   C35       1.0  0.67213  0.46490  0.18320  1.0000
  C   C36       1.0  0.32787  0.46490  0.31680  1.0000
  C   C37       1.0  0.82787  0.03510  0.81680  1.0000
  C   C38       1.0  0.17213  0.03510  0.68320  1.0000
  C   C39       1.0  0.32787  0.53510  0.81680  1.0000
  C   C40       1.0  0.67213  0.53510  0.68320  1.0000
  H   H9        1.0  0.18830  0.88320  0.22050  1.0000
  H   H10       1.0  0.81170  0.88320  0.27950  1.0000
  H   H11       1.0  0.68830  0.38320  0.22050  1.0000
  H   H12       1.0  0.31170  0.38320  0.27950  1.0000
  H   H13       1.0  0.81170  0.11680  0.77950  1.0000
  H   H14       1.0  0.18830  0.11680  0.72050  1.0000
  H   H15       1.0  0.31170  0.61680  0.77950  1.0000
  H   H16       1.0  0.68830  0.61680  0.72050  1.0000
  C   C41       1.0  0.17817  0.18990  0.09950  1.0000
  C   C42       1.0  0.82183  0.18990  0.40050  1.0000
  C   C43       1.0  0.67817  0.68990  0.09950  1.0000
  C   C44       1.0  0.32183  0.68990  0.40050  1.0000
  C   C45       1.0  0.82183  0.81010  0.90050  1.0000
  C   C46       1.0  0.17817  0.81010  0.59950  1.0000
  C   C47       1.0  0.32183  0.31010  0.90050  1.0000
  C   C48       1.0  0.67817  0.31010  0.59950  1.0000
  H   H17       1.0  0.19850  0.25780  0.08130  1.0000
  H   H18       1.0  0.80150  0.25780  0.41870  1.0000
  H   H19       1.0  0.69850  0.75780  0.08130  1.0000
  H   H20       1.0  0.30150  0.75780  0.41870  1.0000
  H   H21       1.0  0.80150  0.74220  0.91870  1.0000
  H   H22       1.0  0.19850  0.74220  0.58130  1.0000
  H   H23       1.0  0.30150  0.24220  0.91870  1.0000
  H   H24       1.0  0.69850  0.24220  0.58130  1.0000
  C   C49       1.0  0.26036  0.04420  0.18200  1.0000
  C   C50       1.0  0.73964  0.04420  0.31800  1.0000
  C   C51       1.0  0.76036  0.54420  0.18200  1.0000
  C   C52       1.0  0.23964  0.54420  0.31800  1.0000
  C   C53       1.0  0.73964  0.95580  0.81800  1.0000
  C   C54       1.0  0.26036  0.95580  0.68200  1.0000
  C   C55       1.0  0.23964  0.45580  0.81800  1.0000
  C   C56       1.0  0.76036  0.45580  0.68200  1.0000
  O   O17       1.0  0.29082  0.14370  0.20520  1.0000
  O   O18       1.0  0.70918  0.14370  0.29480  1.0000
  O   O19       1.0  0.79082  0.64370  0.20520  1.0000
  O   O20       1.0  0.20918  0.64370  0.29480  1.0000
  O   O21       1.0  0.70918  0.85630  0.79480  1.0000
  O   O22       1.0  0.29082  0.85630  0.70520  1.0000
  O   O23       1.0  0.20918  0.35630  0.79480  1.0000
  O   O24       1.0  0.79082  0.35630  0.70520  1.0000
  O   O25       1.0  0.27729  0.92840  0.18360  1.0000
  O   O26       1.0  0.72271  0.92840  0.31640  1.0000
  O   O27       1.0  0.77729  0.42840  0.18360  1.0000
  O   O28       1.0  0.22271  0.42840  0.31640  1.0000
  O   O29       1.0  0.72271  0.07160  0.81640  1.0000
  O   O30       1.0  0.27729  0.07160  0.68360  1.0000
  O   O31       1.0  0.22271  0.57160  0.81640  1.0000
  O   O32       1.0  0.77729  0.57160  0.68360  1.0000
  C   C57       1.0  0.08592  0.87570  0.18680  1.0000
  C   C58       1.0  0.91408  0.87570  0.31320  1.0000
  C   C59       1.0  0.58592  0.37570  0.18680  1.0000
  C   C60       1.0  0.41408  0.37570  0.31320  1.0000
  C   C61       1.0  0.91408  0.12430  0.81320  1.0000
  C   C62       1.0  0.08592  0.12430  0.68680  1.0000
  C   C63       1.0  0.41408  0.62430  0.81320  1.0000
  C   C64       1.0  0.58592  0.62430  0.68680  1.0000
  O   O33       1.0  0.04222  0.90860  0.19620  1.0000
  O   O34       1.0  0.95778  0.90860  0.30380  1.0000
  O   O35       1.0  0.54222  0.40860  0.19620  1.0000
  O   O36       1.0  0.45778  0.40860  0.30380  1.0000
  O   O37       1.0  0.95778  0.09140  0.80380  1.0000
  O   O38       1.0  0.04222  0.09140  0.69620  1.0000
  O   O39       1.0  0.45778  0.59140  0.80380  1.0000
  O   O40       1.0  0.54222  0.59140  0.69620  1.0000
  O   O41       1.0  0.10260  0.75800  0.19900  1.0000
  O   O42       1.0  0.89740  0.75800  0.30100  1.0000
  O   O43       1.0  0.60260  0.25800  0.19900  1.0000
  O   O44       1.0  0.39740  0.25800  0.30100  1.0000
  O   O45       1.0  0.89740  0.24200  0.80100  1.0000
  O   O46       1.0  0.10260  0.24200  0.69900  1.0000
  O   O47       1.0  0.39740  0.74200  0.80100  1.0000
  O   O48       1.0  0.60260  0.74200  0.69900  1.0000
  O   O49       1.0  0.12883  0.44960  0.94810  1.0000
  O   O50       1.0  0.87117  0.44960  0.55190  1.0000
  O   O51       1.0  0.62883  0.94960  0.94810  1.0000
  O   O52       1.0  0.37117  0.94960  0.55190  1.0000
  O   O53       1.0  0.87117  0.55040  0.05190  1.0000
  O   O54       1.0  0.12883  0.55040  0.44810  1.0000
  O   O55       1.0  0.37117  0.05040  0.05190  1.0000
  O   O56       1.0  0.62883  0.05040  0.44810  1.0000
