data_image0
_chemical_formula_structural       Cu4O24C4H4C4H4C4H4
_chemical_formula_sum              "Cu4 O24 C12 H12"
_cell_length_a       9.2007
_cell_length_b       8.1153
_cell_length_c       11.442
_cell_angle_alpha    90
_cell_angle_beta     90
_cell_angle_gamma    90

_space_group_name_H-M_alt    "P 1"
_space_group_IT_number       1

loop_
  _space_group_symop_operation_xyz
  'x, y, z'

loop_
  _atom_site_type_symbol
  _atom_site_label
  _atom_site_symmetry_multiplicity
  _atom_site_fract_x
  _atom_site_fract_y
  _atom_site_fract_z
  _atom_site_occupancy
  Cu  Cu1       1.0  0.53017  0.50612  0.50031  1.0000
  Cu  Cu2       1.0  0.46983  0.49388  0.00031  1.0000
  Cu  Cu3       1.0  0.03017  0.99388  0.50031  1.0000
  Cu  Cu4       1.0  0.96983  0.00612  0.00031  1.0000
  O   O1        1.0  0.29548  0.38550  0.56559  1.0000
  O   O2        1.0  0.70452  0.61450  0.06559  1.0000
  O   O3        1.0  0.79548  0.11450  0.56559  1.0000
  O   O4        1.0  0.20452  0.88550  0.06559  1.0000
  O   O5        1.0  0.12955  0.18750  0.56390  1.0000
  O   O6        1.0  0.87045  0.81250  0.06390  1.0000
  O   O7        1.0  0.62955  0.31250  0.56390  1.0000
  O   O8        1.0  0.37045  0.68750  0.06390  1.0000
  O   O9        1.0  0.43608  0.70352  0.43627  1.0000
  O   O10       1.0  0.56392  0.29648  0.93627  1.0000
  O   O11       1.0  0.93608  0.79648  0.43627  1.0000
  O   O12       1.0  0.06392  0.20352  0.93627  1.0000
  O   O13       1.0  0.26105  0.89135  0.43319  1.0000
  O   O14       1.0  0.73895  0.10865  0.93319  1.0000
  O   O15       1.0  0.76105  0.60865  0.43319  1.0000
  O   O16       1.0  0.23895  0.39135  0.93319  1.0000
  O   O17       1.0  0.53429  0.61783  0.65754  1.0000
  O   O18       1.0  0.46571  0.38217  0.15754  1.0000
  O   O19       1.0  0.03429  0.88217  0.65754  1.0000
  O   O20       1.0  0.96571  0.11783  0.15754  1.0000
  O   O21       1.0  0.49732  0.61218  0.84770  1.0000
  O   O22       1.0  0.50268  0.38782  0.34770  1.0000
  O   O23       1.0  0.99732  0.88782  0.84770  1.0000
  O   O24       1.0  0.00268  0.11218  0.34770  1.0000
  C   C1        1.0  0.24340  0.25442  0.52691  1.0000
  C   C2        1.0  0.75660  0.74558  0.02691  1.0000
  C   C3        1.0  0.74340  0.24558  0.52691  1.0000
  C   C4        1.0  0.25660  0.75442  0.02691  1.0000
  H   H1        1.0  0.29270  0.20260  0.46620  1.0000
  H   H2        1.0  0.70730  0.79740  0.96620  1.0000
  H   H3        1.0  0.79270  0.29740  0.46620  1.0000
  H   H4        1.0  0.20730  0.70260  0.96620  1.0000
  C   C5        1.0  0.32070  0.76639  0.47377  1.0000
  C   C6        1.0  0.67930  0.23361  0.97377  1.0000
  C   C7        1.0  0.82070  0.73361  0.47377  1.0000
  C   C8        1.0  0.17930  0.26639  0.97377  1.0000
  H   H5        1.0  0.27610  0.71540  0.53710  1.0000
  H   H6        1.0  0.72390  0.28460  0.03710  1.0000
  H   H7        1.0  0.77610  0.78460  0.53710  1.0000
  H   H8        1.0  0.22390  0.21540  0.03710  1.0000
  C   C9        1.0  0.50010  0.54373  0.75013  1.0000
  C   C10       1.0  0.49990  0.45627  0.25013  1.0000
  C   C11       1.0  0.00010  0.95627  0.75013  1.0000
  C   C12       1.0  0.99990  0.04373  0.25013  1.0000
  H   H9        1.0  0.47580  0.43270  0.74560  1.0000
  H   H10       1.0  0.52420  0.56730  0.24560  1.0000
  H   H11       1.0  0.97580  0.06730  0.74560  1.0000
  H   H12       1.0  0.02420  0.93270  0.24560  1.0000
