data_image0
_chemical_formula_structural       Co4O24C12H12
_chemical_formula_sum              "Co4 O24 C12 H12"
_cell_length_a       8.2674
_cell_length_b       11.66
_cell_length_c       8.1483
_cell_angle_alpha    90
_cell_angle_beta     90
_cell_angle_gamma    90

_space_group_name_H-M_alt    "P 1"
_space_group_IT_number       1

loop_
  _space_group_symop_operation_xyz
  'x, y, z'

loop_
  _atom_site_type_symbol
  _atom_site_label
  _atom_site_symmetry_multiplicity
  _atom_site_fract_x
  _atom_site_fract_y
  _atom_site_fract_z
  _atom_site_occupancy
  Co  Co1       1.0  0.50000  0.00000  0.00000  1.0000
  Co  Co2       1.0  0.00000  0.00000  0.50000  1.0000
  Co  Co3       1.0  0.50000  0.50000  0.00000  1.0000
  Co  Co4       1.0  0.00000  0.50000  0.50000  1.0000
  O   O1        1.0  0.59584  0.92944  0.78589  1.0000
  O   O2        1.0  0.90416  0.07056  0.28589  1.0000
  O   O3        1.0  0.40416  0.42944  0.21411  1.0000
  O   O4        1.0  0.09584  0.57056  0.71411  1.0000
  O   O5        1.0  0.40416  0.07056  0.21411  1.0000
  O   O6        1.0  0.09584  0.92944  0.71411  1.0000
  O   O7        1.0  0.59584  0.57056  0.78589  1.0000
  O   O8        1.0  0.90416  0.42944  0.28589  1.0000
  O   O9        1.0  0.77272  0.94024  0.58173  1.0000
  O   O10       1.0  0.72728  0.05976  0.08173  1.0000
  O   O11       1.0  0.22728  0.44024  0.41827  1.0000
  O   O12       1.0  0.27272  0.55976  0.91827  1.0000
  O   O13       1.0  0.22728  0.05976  0.41827  1.0000
  O   O14       1.0  0.27272  0.94024  0.91827  1.0000
  O   O15       1.0  0.77272  0.55976  0.58173  1.0000
  O   O16       1.0  0.72728  0.44024  0.08173  1.0000
  O   O17       1.0  0.47437  0.15518  0.87230  1.0000
  O   O18       1.0  0.02563  0.84482  0.37230  1.0000
  O   O19       1.0  0.52563  0.65518  0.12770  1.0000
  O   O20       1.0  0.97437  0.34482  0.62770  1.0000
  O   O21       1.0  0.52563  0.84482  0.12770  1.0000
  O   O22       1.0  0.97437  0.15518  0.62770  1.0000
  O   O23       1.0  0.47437  0.34482  0.87230  1.0000
  O   O24       1.0  0.02563  0.65518  0.37230  1.0000
  C   C1        1.0  0.71991  0.97031  0.72051  1.0000
  C   C2        1.0  0.78009  0.02969  0.22051  1.0000
  C   C3        1.0  0.28009  0.47031  0.27949  1.0000
  C   C4        1.0  0.21991  0.52969  0.77949  1.0000
  C   C5        1.0  0.28009  0.02969  0.27949  1.0000
  C   C6        1.0  0.21991  0.97031  0.77949  1.0000
  C   C7        1.0  0.71991  0.52969  0.72051  1.0000
  C   C8        1.0  0.78009  0.47031  0.22051  1.0000
  C   C9        1.0  0.49044  0.25000  0.94302  1.0000
  C   C10       1.0  0.00956  0.75000  0.44302  1.0000
  C   C11       1.0  0.50956  0.75000  0.05698  1.0000
  C   C12       1.0  0.99044  0.25000  0.55698  1.0000
  H   H1        1.0  0.78860  0.03360  0.78820  1.0000
  H   H2        1.0  0.71140  0.96640  0.28820  1.0000
  H   H3        1.0  0.21140  0.53360  0.21180  1.0000
  H   H4        1.0  0.28860  0.46640  0.71180  1.0000
  H   H5        1.0  0.21140  0.96640  0.21180  1.0000
  H   H6        1.0  0.28860  0.03360  0.71180  1.0000
  H   H7        1.0  0.78860  0.46640  0.78820  1.0000
  H   H8        1.0  0.71140  0.53360  0.28820  1.0000
  H   H9        1.0  0.52000  0.25000  0.07560  1.0000
  H   H10       1.0  0.98000  0.75000  0.57560  1.0000
  H   H11       1.0  0.48000  0.75000  0.92440  1.0000
  H   H12       1.0  0.02000  0.25000  0.42440  1.0000
