data_image0
_chemical_formula_structural       C8H8C4H4O24Co4
_chemical_formula_sum              "C12 H12 O24 Co4"
_cell_length_a       8.4069
_cell_length_b       11.71
_cell_length_c       8.1075
_cell_angle_alpha    90
_cell_angle_beta     90
_cell_angle_gamma    90

_space_group_name_H-M_alt    "P 1"
_space_group_IT_number       1

loop_
  _space_group_symop_operation_xyz
  'x, y, z'

loop_
  _atom_site_type_symbol
  _atom_site_label
  _atom_site_symmetry_multiplicity
  _atom_site_fract_x
  _atom_site_fract_y
  _atom_site_fract_z
  _atom_site_occupancy
  C   C1        1.0  0.27880  0.52930  0.21950  1.0000
  C   C2        1.0  0.22120  0.47070  0.71950  1.0000
  C   C3        1.0  0.77880  0.97070  0.28050  1.0000
  C   C4        1.0  0.72120  0.02930  0.78050  1.0000
  C   C5        1.0  0.72120  0.47070  0.78050  1.0000
  C   C6        1.0  0.77880  0.52930  0.28050  1.0000
  C   C7        1.0  0.22120  0.02930  0.71950  1.0000
  C   C8        1.0  0.27880  0.97070  0.21950  1.0000
  H   H1        1.0  0.23500  0.46300  0.27200  1.0000
  H   H2        1.0  0.26500  0.53700  0.77200  1.0000
  H   H3        1.0  0.73500  0.03700  0.22800  1.0000
  H   H4        1.0  0.76500  0.96300  0.72800  1.0000
  H   H5        1.0  0.76500  0.53700  0.72800  1.0000
  H   H6        1.0  0.73500  0.46300  0.22800  1.0000
  H   H7        1.0  0.26500  0.96300  0.77200  1.0000
  H   H8        1.0  0.23500  0.03700  0.27200  1.0000
  C   C9        1.0  0.01220  0.25000  0.05500  1.0000
  C   C10       1.0  0.48780  0.75000  0.55500  1.0000
  C   C11       1.0  0.51220  0.25000  0.44500  1.0000
  C   C12       1.0  0.98780  0.75000  0.94500  1.0000
  H   H9        1.0  0.99100  0.25000  0.93600  1.0000
  H   H10       1.0  0.50900  0.75000  0.43600  1.0000
  H   H11       1.0  0.49100  0.25000  0.56400  1.0000
  H   H12       1.0  0.00900  0.75000  0.06400  1.0000
  O   O1        1.0  0.22310  0.56060  0.08340  1.0000
  O   O2        1.0  0.27690  0.43940  0.58340  1.0000
  O   O3        1.0  0.72310  0.93940  0.41660  1.0000
  O   O4        1.0  0.77690  0.06060  0.91660  1.0000
  O   O5        1.0  0.77690  0.43940  0.91660  1.0000
  O   O6        1.0  0.72310  0.56060  0.41660  1.0000
  O   O7        1.0  0.27690  0.06060  0.58340  1.0000
  O   O8        1.0  0.22310  0.93940  0.08340  1.0000
  O   O9        1.0  0.40250  0.56760  0.28350  1.0000
  O   O10       1.0  0.09750  0.43240  0.78350  1.0000
  O   O11       1.0  0.90250  0.93240  0.21650  1.0000
  O   O12       1.0  0.59750  0.06760  0.71650  1.0000
  O   O13       1.0  0.59750  0.43240  0.71650  1.0000
  O   O14       1.0  0.90250  0.56760  0.21650  1.0000
  O   O15       1.0  0.09750  0.06760  0.78350  1.0000
  O   O16       1.0  0.40250  0.93240  0.28350  1.0000
  O   O17       1.0  0.02830  0.34400  0.12600  1.0000
  O   O18       1.0  0.47170  0.65600  0.62600  1.0000
  O   O19       1.0  0.52830  0.15600  0.37400  1.0000
  O   O20       1.0  0.97170  0.84400  0.87400  1.0000
  O   O21       1.0  0.97170  0.65600  0.87400  1.0000
  O   O22       1.0  0.52830  0.34400  0.37400  1.0000
  O   O23       1.0  0.47170  0.84400  0.62600  1.0000
  O   O24       1.0  0.02830  0.15600  0.12600  1.0000
  Co  Co1       1.0  0.00000  0.50000  0.00000  1.0000
  Co  Co2       1.0  0.50000  0.50000  0.50000  1.0000
  Co  Co3       1.0  0.50000  0.00000  0.50000  1.0000
  Co  Co4       1.0  0.00000  0.00000  0.00000  1.0000
