data_image0
_chemical_formula_structural       Co2O12C12H4O8H8O4Co2
_chemical_formula_sum              "Co4 O24 C12 H12"
_cell_length_a       8.175
_cell_length_b       8.271
_cell_length_c       11.673
_cell_angle_alpha    90
_cell_angle_beta     91.883
_cell_angle_gamma    90

_space_group_name_H-M_alt    "P 1"
_space_group_IT_number       1

loop_
  _space_group_symop_operation_xyz
  'x, y, z'

loop_
  _atom_site_type_symbol
  _atom_site_label
  _atom_site_symmetry_multiplicity
  _atom_site_fract_x
  _atom_site_fract_y
  _atom_site_fract_z
  _atom_site_occupancy
  Co  Co1       1.0  0.00000  0.50000  0.00000  1.0000
  Co  Co2       1.0  0.50000  0.00000  0.50000  1.0000
  O   O1        1.0  0.21470  0.40140  0.07504  1.0000
  O   O2        1.0  0.28530  0.90140  0.42496  1.0000
  O   O3        1.0  0.78530  0.59860  0.92496  1.0000
  O   O4        1.0  0.71470  0.09860  0.57504  1.0000
  O   O5        1.0  0.91490  0.27320  0.94131  1.0000
  O   O6        1.0  0.58510  0.77320  0.55869  1.0000
  O   O7        1.0  0.08510  0.72680  0.05869  1.0000
  O   O8        1.0  0.41490  0.22680  0.44131  1.0000
  O   O9        1.0  0.12720  0.52150  0.84767  1.0000
  O   O10       1.0  0.37280  0.02150  0.65233  1.0000
  O   O11       1.0  0.87280  0.47850  0.15233  1.0000
  O   O12       1.0  0.62720  0.97850  0.34767  1.0000
  C   C1        1.0  0.28130  0.28050  0.03141  1.0000
  C   C2        1.0  0.21870  0.78050  0.46859  1.0000
  C   C3        1.0  0.71870  0.71950  0.96859  1.0000
  C   C4        1.0  0.78130  0.21950  0.53141  1.0000
  C   C5        1.0  0.77690  0.22010  0.97075  1.0000
  C   C6        1.0  0.72310  0.72010  0.52925  1.0000
  C   C7        1.0  0.22310  0.77990  0.02925  1.0000
  C   C8        1.0  0.27690  0.27990  0.47075  1.0000
  C   C9        1.0  0.05720  0.50900  0.75126  1.0000
  C   C10       1.0  0.44280  0.00900  0.74874  1.0000
  C   C11       1.0  0.94280  0.49100  0.24874  1.0000
  C   C12       1.0  0.55720  0.99100  0.25126  1.0000
  H   H1        1.0  0.22340  0.22570  0.97350  1.0000
  H   H2        1.0  0.27660  0.72570  0.52650  1.0000
  H   H3        1.0  0.77660  0.77430  0.02650  1.0000
  H   H4        1.0  0.72340  0.27430  0.47350  1.0000
  O   O13       1.0  0.42230  0.22810  0.06094  1.0000
  O   O14       1.0  0.07770  0.72810  0.43906  1.0000
  O   O15       1.0  0.57770  0.77190  0.93906  1.0000
  O   O16       1.0  0.92230  0.27190  0.56094  1.0000
  O   O17       1.0  0.71290  0.09340  0.93281  1.0000
  O   O18       1.0  0.78710  0.59340  0.56719  1.0000
  O   O19       1.0  0.28710  0.90660  0.06719  1.0000
  O   O20       1.0  0.21290  0.40660  0.43281  1.0000
  H   H5        1.0  0.71980  0.27960  0.02400  1.0000
  H   H6        1.0  0.78020  0.77960  0.47600  1.0000
  H   H7        1.0  0.28020  0.72040  0.97600  1.0000
  H   H8        1.0  0.21980  0.22040  0.52400  1.0000
  H   H9        1.0  0.94630  0.48370  0.74800  1.0000
  H   H10       1.0  0.55370  0.98370  0.75200  1.0000
  H   H11       1.0  0.05370  0.51630  0.25200  1.0000
  H   H12       1.0  0.44630  0.01630  0.24800  1.0000
  O   O21       1.0  0.12910  0.52880  0.65767  1.0000
  O   O22       1.0  0.37090  0.02880  0.84233  1.0000
  O   O23       1.0  0.87090  0.47120  0.34233  1.0000
  O   O24       1.0  0.62910  0.97120  0.15767  1.0000
  Co  Co3       1.0  0.50000  0.00000  0.00000  1.0000
  Co  Co4       1.0  0.00000  0.50000  0.50000  1.0000
