data_image0
_chemical_formula_structural       Br2Cu2O8N2C10H2C2H2C2H2
_chemical_formula_sum              "Br2 Cu2 O8 N2 C14 H6"
_cell_length_a       8.1243
_cell_length_b       9.355
_cell_length_c       10.053
_cell_angle_alpha    114.696
_cell_angle_beta     110.34
_cell_angle_gamma    90.21

_space_group_name_H-M_alt    "P 1"
_space_group_IT_number       1

loop_
  _space_group_symop_operation_xyz
  'x, y, z'

loop_
  _atom_site_type_symbol
  _atom_site_label
  _atom_site_symmetry_multiplicity
  _atom_site_fract_x
  _atom_site_fract_y
  _atom_site_fract_z
  _atom_site_occupancy
  Br  Br1       1.0  0.40045  0.13274  0.40771  1.0000
  Br  Br2       1.0  0.59955  0.86726  0.59229  1.0000
  Cu  Cu1       1.0  0.33839  0.06554  0.58796  1.0000
  Cu  Cu2       1.0  0.66161  0.93446  0.41204  1.0000
  O   O1        1.0  0.50190  0.24670  0.79730  1.0000
  O   O2        1.0  0.49810  0.75330  0.20270  1.0000
  O   O3        1.0  0.13090  0.88070  0.43060  1.0000
  O   O4        1.0  0.86910  0.11930  0.56940  1.0000
  O   O5        1.0  0.93160  0.70830  0.41980  1.0000
  O   O6        1.0  0.06840  0.29170  0.58020  1.0000
  O   O7        1.0  0.57410  0.34470  0.05650  1.0000
  O   O8        1.0  0.42590  0.65530  0.94350  1.0000
  N   N1        1.0  0.26120  0.02450  0.73020  1.0000
  N   N2        1.0  0.73880  0.97550  0.26980  1.0000
  C   C1        1.0  0.13520  0.89980  0.67220  1.0000
  C   C2        1.0  0.86480  0.10020  0.32780  1.0000
  C   C3        1.0  0.48340  0.24830  0.91910  1.0000
  C   C4        1.0  0.51660  0.75170  0.08090  1.0000
  C   C5        1.0  0.05760  0.81980  0.49430  1.0000
  C   C6        1.0  0.94240  0.18020  0.50570  1.0000
  C   C7        1.0  0.34520  0.11680  0.88590  1.0000
  C   C8        1.0  0.65480  0.88320  0.11410  1.0000
  C   C9        1.0  0.30590  0.08130  0.99300  1.0000
  C   C10       1.0  0.69410  0.91870  0.00700  1.0000
  H   H1        1.0  0.36610  0.14540  0.10390  1.0000
  H   H2        1.0  0.63390  0.85460  0.89610  1.0000
  C   C11       1.0  0.08960  0.85710  0.77190  1.0000
  C   C12       1.0  0.91040  0.14290  0.22810  1.0000
  H   H3        1.0  0.00100  0.76660  0.73090  1.0000
  H   H4        1.0  0.99900  0.23340  0.26910  1.0000
  C   C13       1.0  0.17740  0.95060  0.93500  1.0000
  C   C14       1.0  0.82260  0.04940  0.06500  1.0000
  H   H5        1.0  0.14830  0.92400  0.00660  1.0000
  H   H6        1.0  0.85170  0.07600  0.99340  1.0000
