data_image0
_chemical_formula_structural       Cr2K2C4H4C4H4C4H4O24
_chemical_formula_sum              "Cr2 K2 C12 H12 O24"
_cell_length_a       7.99
_cell_length_b       9.7226
_cell_length_c       12.2765
_cell_angle_alpha    90
_cell_angle_beta     90.24
_cell_angle_gamma    90

_space_group_name_H-M_alt    "P 1"
_space_group_IT_number       1

loop_
  _space_group_symop_operation_xyz
  'x, y, z'

loop_
  _atom_site_type_symbol
  _atom_site_label
  _atom_site_symmetry_multiplicity
  _atom_site_fract_x
  _atom_site_fract_y
  _atom_site_fract_z
  _atom_site_occupancy
  Cr  Cr1       1.0  0.50000  0.50000  0.50000  1.0000
  Cr  Cr2       1.0  0.00000  0.00000  0.00000  1.0000
  K   K1        1.0  0.50000  0.50000  0.00000  1.0000
  K   K2        1.0  0.00000  0.00000  0.50000  1.0000
  C   C1        1.0  0.77950  0.30790  0.47580  1.0000
  C   C2        1.0  0.72050  0.80790  0.02420  1.0000
  C   C3        1.0  0.22050  0.69210  0.52420  1.0000
  C   C4        1.0  0.27950  0.19210  0.97580  1.0000
  H   H1        1.0  0.74405  0.27159  0.54191  1.0000
  H   H2        1.0  0.75595  0.77159  0.95809  1.0000
  H   H3        1.0  0.25595  0.72841  0.45809  1.0000
  H   H4        1.0  0.24405  0.22841  0.04191  1.0000
  C   C5        1.0  0.29290  0.25970  0.54250  1.0000
  C   C6        1.0  0.20710  0.75970  0.95750  1.0000
  C   C7        1.0  0.70710  0.74030  0.45750  1.0000
  C   C8        1.0  0.79290  0.24030  0.04250  1.0000
  H   H5        1.0  0.22076  0.29658  0.49049  1.0000
  H   H6        1.0  0.27924  0.79658  0.00951  1.0000
  H   H7        1.0  0.77924  0.70342  0.50951  1.0000
  H   H8        1.0  0.72076  0.20342  0.99049  1.0000
  C   C9        1.0  0.58030  0.52230  0.73140  1.0000
  C   C10       1.0  0.91970  0.02230  0.76860  1.0000
  C   C11       1.0  0.41970  0.47770  0.26860  1.0000
  C   C12       1.0  0.08030  0.97770  0.23140  1.0000
  H   H9        1.0  0.47446  0.48501  0.74199  1.0000
  H   H10       1.0  0.02554  0.98501  0.75801  1.0000
  H   H11       1.0  0.52554  0.51499  0.25801  1.0000
  H   H12       1.0  0.97446  0.01499  0.24199  1.0000
  O   O1        1.0  0.69830  0.40950  0.43770  1.0000
  O   O2        1.0  0.80170  0.90950  0.06230  1.0000
  O   O3        1.0  0.30170  0.59050  0.56230  1.0000
  O   O4        1.0  0.19830  0.09050  0.93770  1.0000
  O   O5        1.0  0.90100  0.25380  0.43250  1.0000
  O   O6        1.0  0.59900  0.75380  0.06750  1.0000
  O   O7        1.0  0.09900  0.74620  0.56750  1.0000
  O   O8        1.0  0.40100  0.24620  0.93250  1.0000
  O   O9        1.0  0.42470  0.32510  0.56450  1.0000
  O   O10       1.0  0.07530  0.82510  0.93550  1.0000
  O   O11       1.0  0.57530  0.67490  0.43550  1.0000
  O   O12       1.0  0.92470  0.17490  0.06450  1.0000
  O   O13       1.0  0.25330  0.15020  0.58520  1.0000
  O   O14       1.0  0.24670  0.65020  0.91480  1.0000
  O   O15       1.0  0.74670  0.84980  0.41480  1.0000
  O   O16       1.0  0.75330  0.34980  0.08520  1.0000
  O   O17       1.0  0.62990  0.53570  0.63370  1.0000
  O   O18       1.0  0.87010  0.03570  0.86630  1.0000
  O   O19       1.0  0.37010  0.46430  0.36630  1.0000
  O   O20       1.0  0.12990  0.96430  0.13370  1.0000
  O   O21       1.0  0.65950  0.55420  0.81180  1.0000
  O   O22       1.0  0.84050  0.05420  0.68820  1.0000
  O   O23       1.0  0.34050  0.44580  0.18820  1.0000
  O   O24       1.0  0.15950  0.94580  0.31180  1.0000
