data_image0
_chemical_formula_structural       Cr2K2C4H4C4H4C4H4O24
_chemical_formula_sum              "Cr2 K2 C12 H12 O24"
_cell_length_a       7.99891
_cell_length_b       9.797
_cell_length_c       12.3355
_cell_angle_alpha    90
_cell_angle_beta     90.182
_cell_angle_gamma    90

_space_group_name_H-M_alt    "P 1"
_space_group_IT_number       1

loop_
  _space_group_symop_operation_xyz
  'x, y, z'

loop_
  _atom_site_type_symbol
  _atom_site_label
  _atom_site_symmetry_multiplicity
  _atom_site_fract_x
  _atom_site_fract_y
  _atom_site_fract_z
  _atom_site_occupancy
  Cr  Cr1       1.0  0.50000  0.50000  0.50000  1.0000
  Cr  Cr2       1.0  0.00000  0.00000  0.00000  1.0000
  K   K1        1.0  0.50000  0.50000  0.00000  1.0000
  K   K2        1.0  0.00000  0.00000  0.50000  1.0000
  C   C1        1.0  0.77880  0.30970  0.47700  1.0000
  C   C2        1.0  0.72120  0.80970  0.02300  1.0000
  C   C3        1.0  0.22120  0.69030  0.52300  1.0000
  C   C4        1.0  0.27880  0.19030  0.97700  1.0000
  H   H1        1.0  0.74460  0.27557  0.54370  1.0000
  H   H2        1.0  0.75540  0.77557  0.95630  1.0000
  H   H3        1.0  0.25540  0.72443  0.45630  1.0000
  H   H4        1.0  0.24460  0.22443  0.04370  1.0000
  C   C5        1.0  0.29340  0.26130  0.54300  1.0000
  C   C6        1.0  0.20660  0.76130  0.95700  1.0000
  C   C7        1.0  0.70660  0.73870  0.45700  1.0000
  C   C8        1.0  0.79340  0.23870  0.04300  1.0000
  H   H5        1.0  0.22131  0.29751  0.49121  1.0000
  H   H6        1.0  0.27869  0.79751  0.00879  1.0000
  H   H7        1.0  0.77869  0.70249  0.50879  1.0000
  H   H8        1.0  0.72131  0.20249  0.99121  1.0000
  C   C9        1.0  0.57900  0.52480  0.73050  1.0000
  C   C10       1.0  0.92100  0.02480  0.76950  1.0000
  C   C11       1.0  0.42100  0.47520  0.26950  1.0000
  C   C12       1.0  0.07900  0.97520  0.23050  1.0000
  H   H9        1.0  0.47238  0.48942  0.74083  1.0000
  H   H10       1.0  0.02762  0.98942  0.75917  1.0000
  H   H11       1.0  0.52762  0.51058  0.25917  1.0000
  H   H12       1.0  0.97238  0.01058  0.24083  1.0000
  O   O1        1.0  0.69830  0.40920  0.43843  1.0000
  O   O2        1.0  0.80170  0.90920  0.06157  1.0000
  O   O3        1.0  0.30170  0.59080  0.56157  1.0000
  O   O4        1.0  0.19830  0.09080  0.93843  1.0000
  O   O5        1.0  0.89980  0.25410  0.43320  1.0000
  O   O6        1.0  0.60020  0.75410  0.06680  1.0000
  O   O7        1.0  0.10020  0.74590  0.56680  1.0000
  O   O8        1.0  0.39980  0.24590  0.93320  1.0000
  O   O9        1.0  0.42430  0.32680  0.56521  1.0000
  O   O10       1.0  0.07570  0.82680  0.93479  1.0000
  O   O11       1.0  0.57570  0.67320  0.43479  1.0000
  O   O12       1.0  0.92430  0.17320  0.06521  1.0000
  O   O13       1.0  0.25480  0.15220  0.58560  1.0000
  O   O14       1.0  0.24520  0.65220  0.91440  1.0000
  O   O15       1.0  0.74520  0.84780  0.41440  1.0000
  O   O16       1.0  0.75480  0.34780  0.08560  1.0000
  O   O17       1.0  0.62990  0.53640  0.63290  1.0000
  O   O18       1.0  0.87010  0.03640  0.86710  1.0000
  O   O19       1.0  0.37010  0.46360  0.36710  1.0000
  O   O20       1.0  0.12990  0.96360  0.13290  1.0000
  O   O21       1.0  0.65780  0.55610  0.81048  1.0000
  O   O22       1.0  0.84220  0.05610  0.68952  1.0000
  O   O23       1.0  0.34220  0.44390  0.18952  1.0000
  O   O24       1.0  0.15780  0.94390  0.31048  1.0000
