data_image0
_chemical_formula_structural       Cr2K2C4H4C4H4C4H4O24
_chemical_formula_sum              "Cr2 K2 C12 H12 O24"
_cell_length_a       8.141
_cell_length_b       8.0477
_cell_length_c       12.355
_cell_angle_alpha    90
_cell_angle_beta     94.93
_cell_angle_gamma    90

_space_group_name_H-M_alt    "P 1"
_space_group_IT_number       1

loop_
  _space_group_symop_operation_xyz
  'x, y, z'

loop_
  _atom_site_type_symbol
  _atom_site_label
  _atom_site_symmetry_multiplicity
  _atom_site_fract_x
  _atom_site_fract_y
  _atom_site_fract_z
  _atom_site_occupancy
  Cr  Cr1       1.0  0.50000  0.50000  0.50000  1.0000
  Cr  Cr2       1.0  0.00000  0.00000  0.00000  1.0000
  K   K1        1.0  0.50000  0.50000  0.00000  1.0000
  K   K2        1.0  0.00000  0.00000  0.50000  1.0000
  C   C1        1.0  0.80180  0.32960  0.47100  1.0000
  C   C2        1.0  0.69820  0.82960  0.02900  1.0000
  C   C3        1.0  0.19820  0.67040  0.52900  1.0000
  C   C4        1.0  0.30180  0.17040  0.97100  1.0000
  H   H1        1.0  0.76897  0.26425  0.52719  1.0000
  H   H2        1.0  0.73103  0.76425  0.97281  1.0000
  H   H3        1.0  0.23103  0.73575  0.47281  1.0000
  H   H4        1.0  0.26897  0.23575  0.02719  1.0000
  C   C5        1.0  0.34040  0.18410  0.51100  1.0000
  C   C6        1.0  0.15960  0.68410  0.98900  1.0000
  C   C7        1.0  0.65960  0.81590  0.48900  1.0000
  C   C8        1.0  0.84040  0.31590  0.01100  1.0000
  H   H5        1.0  0.26985  0.22426  0.45341  1.0000
  H   H6        1.0  0.23015  0.72426  0.04659  1.0000
  H   H7        1.0  0.73015  0.77574  0.54659  1.0000
  H   H8        1.0  0.76985  0.27574  0.95341  1.0000
  C   C9        1.0  0.58070  0.48240  0.73100  1.0000
  C   C10       1.0  0.91930  0.98240  0.76900  1.0000
  C   C11       1.0  0.41930  0.51760  0.26900  1.0000
  C   C12       1.0  0.08070  0.01760  0.23100  1.0000
  H   H9        1.0  0.48225  0.42342  0.72837  1.0000
  H   H10       1.0  0.01775  0.92342  0.77163  1.0000
  H   H11       1.0  0.51775  0.57658  0.27163  1.0000
  H   H12       1.0  0.98225  0.07658  0.22837  1.0000
  O   O1        1.0  0.70350  0.44150  0.43180  1.0000
  O   O2        1.0  0.79650  0.94150  0.06820  1.0000
  O   O3        1.0  0.29650  0.55850  0.56820  1.0000
  O   O4        1.0  0.20350  0.05850  0.93180  1.0000
  O   O5        1.0  0.93650  0.30340  0.43850  1.0000
  O   O6        1.0  0.56350  0.80340  0.06150  1.0000
  O   O7        1.0  0.06350  0.69660  0.56150  1.0000
  O   O8        1.0  0.43650  0.19660  0.93850  1.0000
  O   O9        1.0  0.46390  0.27150  0.54550  1.0000
  O   O10       1.0  0.03610  0.77150  0.95450  1.0000
  O   O11       1.0  0.53610  0.72850  0.45450  1.0000
  O   O12       1.0  0.96390  0.22850  0.04550  1.0000
  O   O13       1.0  0.31100  0.04620  0.55090  1.0000
  O   O14       1.0  0.18900  0.54620  0.94910  1.0000
  O   O15       1.0  0.68900  0.95380  0.44910  1.0000
  O   O16       1.0  0.81100  0.45380  0.05090  1.0000
  O   O17       1.0  0.63020  0.53110  0.63650  1.0000
  O   O18       1.0  0.86980  0.03110  0.86350  1.0000
  O   O19       1.0  0.36980  0.46890  0.36350  1.0000
  O   O20       1.0  0.13020  0.96890  0.13650  1.0000
  O   O21       1.0  0.65220  0.50750  0.82300  1.0000
  O   O22       1.0  0.84780  0.00750  0.67700  1.0000
  O   O23       1.0  0.34780  0.49250  0.17700  1.0000
  O   O24       1.0  0.15220  0.99250  0.32300  1.0000
