data_image0
_chemical_formula_structural       Cr2K2C4H4C4H4C4H4O24
_chemical_formula_sum              "Cr2 K2 C12 H12 O24"
_cell_length_a       8.2715
_cell_length_b       8.5665
_cell_length_c       12.2416
_cell_angle_alpha    90
_cell_angle_beta     87.76
_cell_angle_gamma    90

_space_group_name_H-M_alt    "P 1"
_space_group_IT_number       1

loop_
  _space_group_symop_operation_xyz
  'x, y, z'

loop_
  _atom_site_type_symbol
  _atom_site_label
  _atom_site_symmetry_multiplicity
  _atom_site_fract_x
  _atom_site_fract_y
  _atom_site_fract_z
  _atom_site_occupancy
  Cr  Cr1       1.0  0.50000  0.50000  0.50000  1.0000
  Cr  Cr2       1.0  0.00000  0.00000  0.00000  1.0000
  K   K1        1.0  0.50000  0.50000  1.00000  1.0000
  K   K2        1.0  0.00000  0.00000  0.50000  1.0000
  C   C1        1.0  0.78030  0.31580  0.45110  1.0000
  C   C2        1.0  0.71970  0.81580  0.04890  1.0000
  C   C3        1.0  0.21970  0.68420  0.54890  1.0000
  C   C4        1.0  0.28030  0.18420  0.95110  1.0000
  H   H1        1.0  0.75149  0.27270  0.51878  1.0000
  H   H2        1.0  0.74851  0.77270  0.98122  1.0000
  H   H3        1.0  0.24851  0.72730  0.48122  1.0000
  H   H4        1.0  0.25149  0.22730  0.01878  1.0000
  C   C5        1.0  0.32780  0.20910  0.50320  1.0000
  C   C6        1.0  0.17220  0.70910  0.99680  1.0000
  C   C7        1.0  0.67220  0.79090  0.49680  1.0000
  C   C8        1.0  0.82780  0.29090  0.00320  1.0000
  H   H5        1.0  0.26620  0.25259  0.44905  1.0000
  H   H6        1.0  0.23380  0.75259  0.05095  1.0000
  H   H7        1.0  0.73380  0.74741  0.55095  1.0000
  H   H8        1.0  0.76620  0.24741  0.94905  1.0000
  C   C9        1.0  0.57750  0.47900  0.72380  1.0000
  C   C10       1.0  0.92250  0.97900  0.77620  1.0000
  C   C11       1.0  0.42250  0.52100  0.27620  1.0000
  C   C12       1.0  0.07750  0.02100  0.22380  1.0000
  H   H9        1.0  0.47189  0.44268  0.73275  1.0000
  H   H10       1.0  0.02811  0.94268  0.76725  1.0000
  H   H11       1.0  0.52811  0.55732  0.26725  1.0000
  H   H12       1.0  0.97189  0.05732  0.23275  1.0000
  O   O1        1.0  0.68940  0.41840  0.41750  1.0000
  O   O2        1.0  0.81060  0.91840  0.08250  1.0000
  O   O3        1.0  0.31060  0.58160  0.58250  1.0000
  O   O4        1.0  0.18940  0.08160  0.91750  1.0000
  O   O5        1.0  0.90620  0.26330  0.40480  1.0000
  O   O6        1.0  0.59380  0.76330  0.09520  1.0000
  O   O7        1.0  0.09380  0.73670  0.59520  1.0000
  O   O8        1.0  0.40620  0.23670  0.90480  1.0000
  O   O9        1.0  0.43760  0.28740  0.54360  1.0000
  O   O10       1.0  0.06240  0.78740  0.95640  1.0000
  O   O11       1.0  0.56240  0.71260  0.45640  1.0000
  O   O12       1.0  0.93760  0.21260  0.04360  1.0000
  O   O13       1.0  0.29880  0.06870  0.53580  1.0000
  O   O14       1.0  0.20120  0.56870  0.96420  1.0000
  O   O15       1.0  0.70120  0.93130  0.46420  1.0000
  O   O16       1.0  0.79880  0.43130  0.03580  1.0000
  O   O17       1.0  0.62670  0.51430  0.63290  1.0000
  O   O18       1.0  0.87330  0.01430  0.86710  1.0000
  O   O19       1.0  0.37330  0.48570  0.36710  1.0000
  O   O20       1.0  0.12670  0.98570  0.13290  1.0000
  O   O21       1.0  0.66020  0.48860  0.80570  1.0000
  O   O22       1.0  0.83980  0.98860  0.69430  1.0000
  O   O23       1.0  0.33980  0.51140  0.19430  1.0000
  O   O24       1.0  0.16020  0.01140  0.30570  1.0000
