data_image0
_chemical_formula_structural       Eu4S16N32O32C24H8C8H8C8H8C32H8C8H8C8H8C32H8C8H8C8H8C8H8C24H8C8H8C8H8C8H8
_chemical_formula_sum              "Eu4 S16 N32 O32 C192 H112"
_cell_length_a       15.5097
_cell_length_b       20.7884
_cell_length_c       20.52
_cell_angle_alpha    90
_cell_angle_beta     107.696
_cell_angle_gamma    90

_space_group_name_H-M_alt    "P 1"
_space_group_IT_number       1

loop_
  _space_group_symop_operation_xyz
  'x, y, z'

loop_
  _atom_site_type_symbol
  _atom_site_label
  _atom_site_symmetry_multiplicity
  _atom_site_fract_x
  _atom_site_fract_y
  _atom_site_fract_z
  _atom_site_occupancy
  Eu  Eu1       1.0  0.00000  0.58825  0.25000  1.0000
  Eu  Eu2       1.0  0.50000  0.08825  0.25000  1.0000
  Eu  Eu3       1.0  0.00000  0.41175  0.75000  1.0000
  Eu  Eu4       1.0  0.50000  0.91175  0.75000  1.0000
  S   S1        1.0  0.77770  0.29547  0.31909  1.0000
  S   S2        1.0  0.22230  0.29547  0.18091  1.0000
  S   S3        1.0  0.27770  0.79547  0.31909  1.0000
  S   S4        1.0  0.72230  0.79547  0.18091  1.0000
  S   S5        1.0  0.22230  0.70453  0.68091  1.0000
  S   S6        1.0  0.77770  0.70453  0.81909  1.0000
  S   S7        1.0  0.72230  0.20453  0.68091  1.0000
  S   S8        1.0  0.27770  0.20453  0.81909  1.0000
  S   S9        1.0  0.79972  0.39125  0.32830  1.0000
  S   S10       1.0  0.20028  0.39125  0.17170  1.0000
  S   S11       1.0  0.29972  0.89125  0.32830  1.0000
  S   S12       1.0  0.70028  0.89125  0.17170  1.0000
  S   S13       1.0  0.20028  0.60875  0.67170  1.0000
  S   S14       1.0  0.79972  0.60875  0.82830  1.0000
  S   S15       1.0  0.70028  0.10875  0.67170  1.0000
  S   S16       1.0  0.29972  0.10875  0.82830  1.0000
  N   N1        1.0  0.95080  0.34340  0.41760  1.0000
  N   N2        1.0  0.04920  0.34340  0.08240  1.0000
  N   N3        1.0  0.45080  0.84340  0.41760  1.0000
  N   N4        1.0  0.54920  0.84340  0.08240  1.0000
  N   N5        1.0  0.04920  0.65660  0.58240  1.0000
  N   N6        1.0  0.95080  0.65660  0.91760  1.0000
  N   N7        1.0  0.54920  0.15660  0.58240  1.0000
  N   N8        1.0  0.45080  0.15660  0.91760  1.0000
  N   N9        1.0  0.70340  0.32760  0.41660  1.0000
  N   N10       1.0  0.29660  0.32760  0.08340  1.0000
  N   N11       1.0  0.20340  0.82760  0.41660  1.0000
  N   N12       1.0  0.79660  0.82760  0.08340  1.0000
  N   N13       1.0  0.29660  0.67240  0.58340  1.0000
  N   N14       1.0  0.70340  0.67240  0.91660  1.0000
  N   N15       1.0  0.79660  0.17240  0.58340  1.0000
  N   N16       1.0  0.20340  0.17240  0.91660  1.0000
  N   N17       1.0  0.08780  0.48024  0.29180  1.0000
  N   N18       1.0  0.91220  0.48024  0.20820  1.0000
  N   N19       1.0  0.58780  0.98024  0.29180  1.0000
  N   N20       1.0  0.41220  0.98024  0.20820  1.0000
  N   N21       1.0  0.91220  0.51976  0.70820  1.0000
  N   N22       1.0  0.08780  0.51976  0.79180  1.0000
  N   N23       1.0  0.41220  0.01976  0.70820  1.0000
  N   N24       1.0  0.58780  0.01976  0.79180  1.0000
  N   N25       1.0  0.95480  0.69686  0.29770  1.0000
  N   N26       1.0  0.04520  0.69686  0.20230  1.0000
  N   N27       1.0  0.45480  0.19686  0.29770  1.0000
  N   N28       1.0  0.54520  0.19686  0.20230  1.0000
  N   N29       1.0  0.04520  0.30314  0.70230  1.0000
  N   N30       1.0  0.95480  0.30314  0.79770  1.0000
  N   N31       1.0  0.54520  0.80314  0.70230  1.0000
  N   N32       1.0  0.45480  0.80314  0.79770  1.0000
  O   O1        1.0  0.82640  0.52510  0.36050  1.0000
  O   O2        1.0  0.17360  0.52510  0.13950  1.0000
  O   O3        1.0  0.32640  0.02510  0.36050  1.0000
  O   O4        1.0  0.67360  0.02510  0.13950  1.0000
  O   O5        1.0  0.17360  0.47490  0.63950  1.0000
  O   O6        1.0  0.82640  0.47490  0.86050  1.0000
  O   O7        1.0  0.67360  0.97490  0.63950  1.0000
  O   O8        1.0  0.32640  0.97490  0.86050  1.0000
  O   O9        1.0  0.95330  0.55699  0.34150  1.0000
  O   O10       1.0  0.04670  0.55699  0.15850  1.0000
  O   O11       1.0  0.45330  0.05699  0.34150  1.0000
  O   O12       1.0  0.54670  0.05699  0.15850  1.0000
  O   O13       1.0  0.04670  0.44301  0.65850  1.0000
  O   O14       1.0  0.95330  0.44301  0.84150  1.0000
  O   O15       1.0  0.54670  0.94301  0.65850  1.0000
  O   O16       1.0  0.45330  0.94301  0.84150  1.0000
  O   O17       1.0  0.63710  0.11973  0.32290  1.0000
  O   O18       1.0  0.36290  0.11973  0.17710  1.0000
  O   O19       1.0  0.13710  0.61973  0.32290  1.0000
  O   O20       1.0  0.86290  0.61973  0.17710  1.0000
  O   O21       1.0  0.36290  0.88027  0.67710  1.0000
  O   O22       1.0  0.63710  0.88027  0.82290  1.0000
  O   O23       1.0  0.86290  0.38027  0.67710  1.0000
  O   O24       1.0  0.13710  0.38027  0.82290  1.0000
  O   O25       1.0  0.76720  0.16310  0.32070  1.0000
  O   O26       1.0  0.23280  0.16310  0.17930  1.0000
  O   O27       1.0  0.26720  0.66310  0.32070  1.0000
  O   O28       1.0  0.73280  0.66310  0.17930  1.0000
  O   O29       1.0  0.23280  0.83690  0.67930  1.0000
  O   O30       1.0  0.76720  0.83690  0.82070  1.0000
  O   O31       1.0  0.73280  0.33690  0.67930  1.0000
  O   O32       1.0  0.26720  0.33690  0.82070  1.0000
  C   C1        1.0  0.91160  0.39680  0.38780  1.0000
  C   C2        1.0  0.08840  0.39680  0.11220  1.0000
  C   C3        1.0  0.41160  0.89680  0.38780  1.0000
  C   C4        1.0  0.58840  0.89680  0.11220  1.0000
  C   C5        1.0  0.08840  0.60320  0.61220  1.0000
  C   C6        1.0  0.91160  0.60320  0.88780  1.0000
  C   C7        1.0  0.58840  0.10320  0.61220  1.0000
  C   C8        1.0  0.41160  0.10320  0.88780  1.0000
  C   C9        1.0  0.95330  0.45810  0.39820  1.0000
  C   C10       1.0  0.04670  0.45810  0.10180  1.0000
  C   C11       1.0  0.45330  0.95810  0.39820  1.0000
  C   C12       1.0  0.54670  0.95810  0.10180  1.0000
  C   C13       1.0  0.04670  0.54190  0.60180  1.0000
  C   C14       1.0  0.95330  0.54190  0.89820  1.0000
  C   C15       1.0  0.54670  0.04190  0.60180  1.0000
  C   C16       1.0  0.45330  0.04190  0.89820  1.0000
  C   C17       1.0  0.04140  0.46080  0.44150  1.0000
  C   C18       1.0  0.95860  0.46080  0.05850  1.0000
  C   C19       1.0  0.54140  0.96080  0.44150  1.0000
  C   C20       1.0  0.45860  0.96080  0.05850  1.0000
  C   C21       1.0  0.95860  0.53920  0.55850  1.0000
  C   C22       1.0  0.04140  0.53920  0.94150  1.0000
  C   C23       1.0  0.45860  0.03920  0.55850  1.0000
  C   C24       1.0  0.54140  0.03920  0.94150  1.0000
  H   H1        1.0  0.07290  0.49950  0.44860  1.0000
  H   H2        1.0  0.92710  0.49950  0.05140  1.0000
  H   H3        1.0  0.57290  0.99950  0.44860  1.0000
  H   H4        1.0  0.42710  0.99950  0.05140  1.0000
  H   H5        1.0  0.92710  0.50050  0.55140  1.0000
  H   H6        1.0  0.07290  0.50050  0.94860  1.0000
  H   H7        1.0  0.42710  0.00050  0.55140  1.0000
  H   H8        1.0  0.57290  0.00050  0.94860  1.0000
  C   C25       1.0  0.08210  0.40490  0.47420  1.0000
  C   C26       1.0  0.91790  0.40490  0.02580  1.0000
  C   C27       1.0  0.58210  0.90490  0.47420  1.0000
  C   C28       1.0  0.41790  0.90490  0.02580  1.0000
  C   C29       1.0  0.91790  0.59510  0.52580  1.0000
  C   C30       1.0  0.08210  0.59510  0.97420  1.0000
  C   C31       1.0  0.41790  0.09510  0.52580  1.0000
  C   C32       1.0  0.58210  0.09510  0.97420  1.0000
  H   H9        1.0  0.14040  0.40600  0.50460  1.0000
  H   H10       1.0  0.85960  0.40600  0.99540  1.0000
  H   H11       1.0  0.64040  0.90600  0.50460  1.0000
  H   H12       1.0  0.35960  0.90600  0.99540  1.0000
  H   H13       1.0  0.85960  0.59400  0.49540  1.0000
  H   H14       1.0  0.14040  0.59400  0.00460  1.0000
  H   H15       1.0  0.35960  0.09400  0.49540  1.0000
  H   H16       1.0  0.64040  0.09400  0.00460  1.0000
  C   C33       1.0  0.03560  0.34890  0.46110  1.0000
  C   C34       1.0  0.96440  0.34890  0.03890  1.0000
  C   C35       1.0  0.53560  0.84890  0.46110  1.0000
  C   C36       1.0  0.46440  0.84890  0.03890  1.0000
  C   C37       1.0  0.96440  0.65110  0.53890  1.0000
  C   C38       1.0  0.03560  0.65110  0.96110  1.0000
  C   C39       1.0  0.46440  0.15110  0.53890  1.0000
  C   C40       1.0  0.53560  0.15110  0.96110  1.0000
  H   H17       1.0  0.06370  0.31210  0.48330  1.0000
  H   H18       1.0  0.93630  0.31210  0.01670  1.0000
  H   H19       1.0  0.56370  0.81210  0.48330  1.0000
  H   H20       1.0  0.43630  0.81210  0.01670  1.0000
  H   H21       1.0  0.93630  0.68790  0.51670  1.0000
  H   H22       1.0  0.06370  0.68790  0.98330  1.0000
  H   H23       1.0  0.43630  0.18790  0.51670  1.0000
  H   H24       1.0  0.56370  0.18790  0.98330  1.0000
  C   C41       1.0  0.90680  0.51710  0.36370  1.0000
  C   C42       1.0  0.09320  0.51710  0.13630  1.0000
  C   C43       1.0  0.40680  0.01710  0.36370  1.0000
  C   C44       1.0  0.59320  0.01710  0.13630  1.0000
  C   C45       1.0  0.09320  0.48290  0.63630  1.0000
  C   C46       1.0  0.90680  0.48290  0.86370  1.0000
  C   C47       1.0  0.59320  0.98290  0.63630  1.0000
  C   C48       1.0  0.40680  0.98290  0.86370  1.0000
  C   C49       1.0  0.71700  0.28040  0.37970  1.0000
  C   C50       1.0  0.28300  0.28040  0.12030  1.0000
  C   C51       1.0  0.21700  0.78040  0.37970  1.0000
  C   C52       1.0  0.78300  0.78040  0.12030  1.0000
  C   C53       1.0  0.28300  0.71960  0.62030  1.0000
  C   C54       1.0  0.71700  0.71960  0.87970  1.0000
  C   C55       1.0  0.78300  0.21960  0.62030  1.0000
  C   C56       1.0  0.21700  0.21960  0.87970  1.0000
  C   C57       1.0  0.68340  0.21730  0.38250  1.0000
  C   C58       1.0  0.31660  0.21730  0.11750  1.0000
  C   C59       1.0  0.18340  0.71730  0.38250  1.0000
  C   C60       1.0  0.81660  0.71730  0.11750  1.0000
  C   C61       1.0  0.31660  0.78270  0.61750  1.0000
  C   C62       1.0  0.68340  0.78270  0.88250  1.0000
  C   C63       1.0  0.81660  0.28270  0.61750  1.0000
  C   C64       1.0  0.18340  0.28270  0.88250  1.0000
  C   C65       1.0  0.63420  0.20840  0.42790  1.0000
  C   C66       1.0  0.36580  0.20840  0.07210  1.0000
  C   C67       1.0  0.13420  0.70840  0.42790  1.0000
  C   C68       1.0  0.86580  0.70840  0.07210  1.0000
  C   C69       1.0  0.36580  0.79160  0.57210  1.0000
  C   C70       1.0  0.63420  0.79160  0.92790  1.0000
  C   C71       1.0  0.86580  0.29160  0.57210  1.0000
  C   C72       1.0  0.13420  0.29160  0.92790  1.0000
  H   H25       1.0  0.60930  0.16820  0.43090  1.0000
  H   H26       1.0  0.39070  0.16820  0.06910  1.0000
  H   H27       1.0  0.10930  0.66820  0.43090  1.0000
  H   H28       1.0  0.89070  0.66820  0.06910  1.0000
  H   H29       1.0  0.39070  0.83180  0.56910  1.0000
  H   H30       1.0  0.60930  0.83180  0.93090  1.0000
  H   H31       1.0  0.89070  0.33180  0.56910  1.0000
  H   H32       1.0  0.10930  0.33180  0.93090  1.0000
  C   C73       1.0  0.62180  0.25640  0.46750  1.0000
  C   C74       1.0  0.37820  0.25640  0.03250  1.0000
  C   C75       1.0  0.12180  0.75640  0.46750  1.0000
  C   C76       1.0  0.87820  0.75640  0.03250  1.0000
  C   C77       1.0  0.37820  0.74360  0.53250  1.0000
  C   C78       1.0  0.62180  0.74360  0.96750  1.0000
  C   C79       1.0  0.87820  0.24360  0.53250  1.0000
  C   C80       1.0  0.12180  0.24360  0.96750  1.0000
  H   H33       1.0  0.59020  0.25030  0.49900  1.0000
  H   H34       1.0  0.40980  0.25030  0.00100  1.0000
  H   H35       1.0  0.09020  0.75030  0.49900  1.0000
  H   H36       1.0  0.90980  0.75030  0.00100  1.0000
  H   H37       1.0  0.40980  0.74970  0.50100  1.0000
  H   H38       1.0  0.59020  0.74970  0.99900  1.0000
  H   H39       1.0  0.90980  0.24970  0.50100  1.0000
  H   H40       1.0  0.09020  0.24970  0.99900  1.0000
  C   C81       1.0  0.65780  0.31530  0.45970  1.0000
  C   C82       1.0  0.34220  0.31530  0.04030  1.0000
  C   C83       1.0  0.15780  0.81530  0.45970  1.0000
  C   C84       1.0  0.84220  0.81530  0.04030  1.0000
  C   C85       1.0  0.34220  0.68470  0.54030  1.0000
  C   C86       1.0  0.65780  0.68470  0.95970  1.0000
  C   C87       1.0  0.84220  0.18470  0.54030  1.0000
  C   C88       1.0  0.15780  0.18470  0.95970  1.0000
  H   H41       1.0  0.64930  0.34900  0.48690  1.0000
  H   H42       1.0  0.35070  0.34900  0.01310  1.0000
  H   H43       1.0  0.14930  0.84900  0.48690  1.0000
  H   H44       1.0  0.85070  0.84900  0.01310  1.0000
  H   H45       1.0  0.35070  0.65100  0.51310  1.0000
  H   H46       1.0  0.64930  0.65100  0.98690  1.0000
  H   H47       1.0  0.85070  0.15100  0.51310  1.0000
  H   H48       1.0  0.14930  0.15100  0.98690  1.0000
  C   C89       1.0  0.69780  0.16290  0.33980  1.0000
  C   C90       1.0  0.30220  0.16290  0.16020  1.0000
  C   C91       1.0  0.19780  0.66290  0.33980  1.0000
  C   C92       1.0  0.80220  0.66290  0.16020  1.0000
  C   C93       1.0  0.30220  0.83710  0.66020  1.0000
  C   C94       1.0  0.69780  0.83710  0.83980  1.0000
  C   C95       1.0  0.80220  0.33710  0.66020  1.0000
  C   C96       1.0  0.19780  0.33710  0.83980  1.0000
  C   C97       1.0  0.04500  0.42260  0.27300  1.0000
  C   C98       1.0  0.95500  0.42260  0.22700  1.0000
  C   C99       1.0  0.54500  0.92260  0.27300  1.0000
  C   C100      1.0  0.45500  0.92260  0.22700  1.0000
  C   C101      1.0  0.95500  0.57740  0.72700  1.0000
  C   C102      1.0  0.04500  0.57740  0.77300  1.0000
  C   C103      1.0  0.45500  0.07740  0.72700  1.0000
  C   C104      1.0  0.54500  0.07740  0.77300  1.0000
  C   C105      1.0  0.08760  0.36330  0.29710  1.0000
  C   C106      1.0  0.91240  0.36330  0.20290  1.0000
  C   C107      1.0  0.58760  0.86330  0.29710  1.0000
  C   C108      1.0  0.41240  0.86330  0.20290  1.0000
  C   C109      1.0  0.91240  0.63670  0.70290  1.0000
  C   C110      1.0  0.08760  0.63670  0.79710  1.0000
  C   C111      1.0  0.41240  0.13670  0.70290  1.0000
  C   C112      1.0  0.58760  0.13670  0.79710  1.0000
  C   C113      1.0  0.17470  0.36510  0.34210  1.0000
  C   C114      1.0  0.82530  0.36510  0.15790  1.0000
  C   C115      1.0  0.67470  0.86510  0.34210  1.0000
  C   C116      1.0  0.32530  0.86510  0.15790  1.0000
  C   C117      1.0  0.82530  0.63490  0.65790  1.0000
  C   C118      1.0  0.17470  0.63490  0.84210  1.0000
  C   C119      1.0  0.32530  0.13490  0.65790  1.0000
  C   C120      1.0  0.67470  0.13490  0.84210  1.0000
  H   H49       1.0  0.20430  0.32700  0.35930  1.0000
  H   H50       1.0  0.79570  0.32700  0.14070  1.0000
  H   H51       1.0  0.70430  0.82700  0.35930  1.0000
  H   H52       1.0  0.29570  0.82700  0.14070  1.0000
  H   H53       1.0  0.79570  0.67300  0.64070  1.0000
  H   H54       1.0  0.20430  0.67300  0.85930  1.0000
  H   H55       1.0  0.29570  0.17300  0.64070  1.0000
  H   H56       1.0  0.70430  0.17300  0.85930  1.0000
  C   C121      1.0  0.21680  0.42220  0.36090  1.0000
  C   C122      1.0  0.78320  0.42220  0.13910  1.0000
  C   C123      1.0  0.71680  0.92220  0.36090  1.0000
  C   C124      1.0  0.28320  0.92220  0.13910  1.0000
  C   C125      1.0  0.78320  0.57780  0.63910  1.0000
  C   C126      1.0  0.21680  0.57780  0.86090  1.0000
  C   C127      1.0  0.28320  0.07780  0.63910  1.0000
  C   C128      1.0  0.71680  0.07780  0.86090  1.0000
  H   H57       1.0  0.27500  0.42380  0.39140  1.0000
  H   H58       1.0  0.72500  0.42380  0.10860  1.0000
  H   H59       1.0  0.77500  0.92380  0.39140  1.0000
  H   H60       1.0  0.22500  0.92380  0.10860  1.0000
  H   H61       1.0  0.72500  0.57620  0.60860  1.0000
  H   H62       1.0  0.27500  0.57620  0.89140  1.0000
  H   H63       1.0  0.22500  0.07620  0.60860  1.0000
  H   H64       1.0  0.77500  0.07620  0.89140  1.0000
  C   C129      1.0  0.17100  0.47890  0.33360  1.0000
  C   C130      1.0  0.82900  0.47890  0.16640  1.0000
  C   C131      1.0  0.67100  0.97890  0.33360  1.0000
  C   C132      1.0  0.32900  0.97890  0.16640  1.0000
  C   C133      1.0  0.82900  0.52110  0.66640  1.0000
  C   C134      1.0  0.17100  0.52110  0.83360  1.0000
  C   C135      1.0  0.32900  0.02110  0.66640  1.0000
  C   C136      1.0  0.67100  0.02110  0.83360  1.0000
  H   H65       1.0  0.20120  0.51790  0.34580  1.0000
  H   H66       1.0  0.79880  0.51790  0.15420  1.0000
  H   H67       1.0  0.70120  0.01790  0.34580  1.0000
  H   H68       1.0  0.29880  0.01790  0.15420  1.0000
  H   H69       1.0  0.79880  0.48210  0.65420  1.0000
  H   H70       1.0  0.20120  0.48210  0.84580  1.0000
  H   H71       1.0  0.29880  0.98210  0.65420  1.0000
  H   H72       1.0  0.70120  0.98210  0.84580  1.0000
  C   C137      1.0  0.03950  0.30390  0.27140  1.0000
  C   C138      1.0  0.96050  0.30390  0.22860  1.0000
  C   C139      1.0  0.53950  0.80390  0.27140  1.0000
  C   C140      1.0  0.46050  0.80390  0.22860  1.0000
  C   C141      1.0  0.96050  0.69610  0.72860  1.0000
  C   C142      1.0  0.03950  0.69610  0.77140  1.0000
  C   C143      1.0  0.46050  0.19610  0.72860  1.0000
  C   C144      1.0  0.53950  0.19610  0.77140  1.0000
  H   H73       1.0  0.06740  0.26480  0.28670  1.0000
  H   H74       1.0  0.93260  0.26480  0.21330  1.0000
  H   H75       1.0  0.56740  0.76480  0.28670  1.0000
  H   H76       1.0  0.43260  0.76480  0.21330  1.0000
  H   H77       1.0  0.93260  0.73520  0.71330  1.0000
  H   H78       1.0  0.06740  0.73520  0.78670  1.0000
  H   H79       1.0  0.43260  0.23520  0.71330  1.0000
  H   H80       1.0  0.56740  0.23520  0.78670  1.0000
  C   C145      1.0  0.97680  0.75400  0.27530  1.0000
  C   C146      1.0  0.02320  0.75400  0.22470  1.0000
  C   C147      1.0  0.47680  0.25400  0.27530  1.0000
  C   C148      1.0  0.52320  0.25400  0.22470  1.0000
  C   C149      1.0  0.02320  0.24600  0.72470  1.0000
  C   C150      1.0  0.97680  0.24600  0.77530  1.0000
  C   C151      1.0  0.52320  0.74600  0.72470  1.0000
  C   C152      1.0  0.47680  0.74600  0.77530  1.0000
  C   C153      1.0  0.95580  0.81280  0.30070  1.0000
  C   C154      1.0  0.04420  0.81280  0.19930  1.0000
  C   C155      1.0  0.45580  0.31280  0.30070  1.0000
  C   C156      1.0  0.54420  0.31280  0.19930  1.0000
  C   C157      1.0  0.04420  0.18720  0.69930  1.0000
  C   C158      1.0  0.95580  0.18720  0.80070  1.0000
  C   C159      1.0  0.54420  0.68720  0.69930  1.0000
  C   C160      1.0  0.45580  0.68720  0.80070  1.0000
  C   C161      1.0  0.91160  0.81150  0.34940  1.0000
  C   C162      1.0  0.08840  0.81150  0.15060  1.0000
  C   C163      1.0  0.41160  0.31150  0.34940  1.0000
  C   C164      1.0  0.58840  0.31150  0.15060  1.0000
  C   C165      1.0  0.08840  0.18850  0.65060  1.0000
  C   C166      1.0  0.91160  0.18850  0.84940  1.0000
  C   C167      1.0  0.58840  0.68850  0.65060  1.0000
  C   C168      1.0  0.41160  0.68850  0.84940  1.0000
  H   H81       1.0  0.89830  0.84970  0.36780  1.0000
  H   H82       1.0  0.10170  0.84970  0.13220  1.0000
  H   H83       1.0  0.39830  0.34970  0.36780  1.0000
  H   H84       1.0  0.60170  0.34970  0.13220  1.0000
  H   H85       1.0  0.10170  0.15030  0.63220  1.0000
  H   H86       1.0  0.89830  0.15030  0.86780  1.0000
  H   H87       1.0  0.60170  0.65030  0.63220  1.0000
  H   H88       1.0  0.39830  0.65030  0.86780  1.0000
  C   C169      1.0  0.88690  0.75350  0.37110  1.0000
  C   C170      1.0  0.11310  0.75350  0.12890  1.0000
  C   C171      1.0  0.38690  0.25350  0.37110  1.0000
  C   C172      1.0  0.61310  0.25350  0.12890  1.0000
  C   C173      1.0  0.11310  0.24650  0.62890  1.0000
  C   C174      1.0  0.88690  0.24650  0.87110  1.0000
  C   C175      1.0  0.61310  0.74650  0.62890  1.0000
  C   C176      1.0  0.38690  0.74650  0.87110  1.0000
  H   H89       1.0  0.85540  0.75190  0.40310  1.0000
  H   H90       1.0  0.14460  0.75190  0.09690  1.0000
  H   H91       1.0  0.35540  0.25190  0.40310  1.0000
  H   H92       1.0  0.64460  0.25190  0.09690  1.0000
  H   H93       1.0  0.14460  0.24810  0.59690  1.0000
  H   H94       1.0  0.85540  0.24810  0.90310  1.0000
  H   H95       1.0  0.64460  0.74810  0.59690  1.0000
  H   H96       1.0  0.35540  0.74810  0.90310  1.0000
  C   C177      1.0  0.91020  0.69770  0.34380  1.0000
  C   C178      1.0  0.08980  0.69770  0.15620  1.0000
  C   C179      1.0  0.41020  0.19770  0.34380  1.0000
  C   C180      1.0  0.58980  0.19770  0.15620  1.0000
  C   C181      1.0  0.08980  0.30230  0.65620  1.0000
  C   C182      1.0  0.91020  0.30230  0.84380  1.0000
  C   C183      1.0  0.58980  0.80230  0.65620  1.0000
  C   C184      1.0  0.41020  0.80230  0.84380  1.0000
  H   H97       1.0  0.89370  0.65850  0.35840  1.0000
  H   H98       1.0  0.10630  0.65850  0.14160  1.0000
  H   H99       1.0  0.39370  0.15850  0.35840  1.0000
  H   H100      1.0  0.60630  0.15850  0.14160  1.0000
  H   H101      1.0  0.10630  0.34150  0.64160  1.0000
  H   H102      1.0  0.89370  0.34150  0.85840  1.0000
  H   H103      1.0  0.60630  0.84150  0.64160  1.0000
  H   H104      1.0  0.39370  0.84150  0.85840  1.0000
  C   C185      1.0  0.98050  0.87190  0.27360  1.0000
  C   C186      1.0  0.01950  0.87190  0.22640  1.0000
  C   C187      1.0  0.48050  0.37190  0.27360  1.0000
  C   C188      1.0  0.51950  0.37190  0.22640  1.0000
  C   C189      1.0  0.01950  0.12810  0.72640  1.0000
  C   C190      1.0  0.98050  0.12810  0.77360  1.0000
  C   C191      1.0  0.51950  0.62810  0.72640  1.0000
  C   C192      1.0  0.48050  0.62810  0.77360  1.0000
  H   H105      1.0  0.96790  0.91100  0.29070  1.0000
  H   H106      1.0  0.03210  0.91100  0.20930  1.0000
  H   H107      1.0  0.46790  0.41100  0.29070  1.0000
  H   H108      1.0  0.53210  0.41100  0.20930  1.0000
  H   H109      1.0  0.03210  0.08900  0.70930  1.0000
  H   H110      1.0  0.96790  0.08900  0.79070  1.0000
  H   H111      1.0  0.53210  0.58900  0.70930  1.0000
  H   H112      1.0  0.46790  0.58900  0.79070  1.0000
