data_image0
_chemical_formula_structural       C24H8C8H8C40H8O64S12U8
_chemical_formula_sum              "C72 H24 O64 S12 U8"
_cell_length_a       18.295
_cell_length_b       14.1382
_cell_length_c       13.9113
_cell_angle_alpha    90
_cell_angle_beta     90
_cell_angle_gamma    90

_space_group_name_H-M_alt    "P 1"
_space_group_IT_number       1

loop_
  _space_group_symop_operation_xyz
  'x, y, z'

loop_
  _atom_site_type_symbol
  _atom_site_label
  _atom_site_symmetry_multiplicity
  _atom_site_fract_x
  _atom_site_fract_y
  _atom_site_fract_z
  _atom_site_occupancy
  C   C1        1.0  0.35690  0.22820  0.19420  1.0000
  C   C2        1.0  0.14310  0.27180  0.19420  1.0000
  C   C3        1.0  0.85690  0.77180  0.30580  1.0000
  C   C4        1.0  0.64310  0.72820  0.30580  1.0000
  C   C5        1.0  0.64310  0.77180  0.80580  1.0000
  C   C6        1.0  0.85690  0.72820  0.80580  1.0000
  C   C7        1.0  0.14310  0.22820  0.69420  1.0000
  C   C8        1.0  0.35690  0.27180  0.69420  1.0000
  C   C9        1.0  0.43660  0.21080  0.20530  1.0000
  C   C10       1.0  0.06340  0.28920  0.20530  1.0000
  C   C11       1.0  0.93660  0.78920  0.29470  1.0000
  C   C12       1.0  0.56340  0.71080  0.29470  1.0000
  C   C13       1.0  0.56340  0.78920  0.79470  1.0000
  C   C14       1.0  0.93660  0.71080  0.79470  1.0000
  C   C15       1.0  0.06340  0.21080  0.70530  1.0000
  C   C16       1.0  0.43660  0.28920  0.70530  1.0000
  C   C17       1.0  0.48940  0.27730  0.22390  1.0000
  C   C18       1.0  0.01060  0.22270  0.22390  1.0000
  C   C19       1.0  0.98940  0.72270  0.27610  1.0000
  C   C20       1.0  0.51060  0.77730  0.27610  1.0000
  C   C21       1.0  0.51060  0.72270  0.77610  1.0000
  C   C22       1.0  0.98940  0.77730  0.77610  1.0000
  C   C23       1.0  0.01060  0.27730  0.72390  1.0000
  C   C24       1.0  0.48940  0.22270  0.72390  1.0000
  H   H1        1.0  0.48030  0.34180  0.22950  1.0000
  H   H2        1.0  0.01970  0.15820  0.22950  1.0000
  H   H3        1.0  0.98030  0.65820  0.27050  1.0000
  H   H4        1.0  0.51970  0.84180  0.27050  1.0000
  H   H5        1.0  0.51970  0.65820  0.77050  1.0000
  H   H6        1.0  0.98030  0.84180  0.77050  1.0000
  H   H7        1.0  0.01970  0.34180  0.72950  1.0000
  H   H8        1.0  0.48030  0.15820  0.72950  1.0000
  C   C25       1.0  0.55930  0.23570  0.23340  1.0000
  C   C26       1.0  0.94070  0.26430  0.23340  1.0000
  C   C27       1.0  0.05930  0.76430  0.26660  1.0000
  C   C28       1.0  0.44070  0.73570  0.26660  1.0000
  C   C29       1.0  0.44070  0.76430  0.76660  1.0000
  C   C30       1.0  0.05930  0.73570  0.76660  1.0000
  C   C31       1.0  0.94070  0.23570  0.73340  1.0000
  C   C32       1.0  0.55930  0.26430  0.73340  1.0000
  H   H9        1.0  0.60190  0.26960  0.24550  1.0000
  H   H10       1.0  0.89810  0.23040  0.24550  1.0000
  H   H11       1.0  0.10190  0.73040  0.25450  1.0000
  H   H12       1.0  0.39810  0.76960  0.25450  1.0000
  H   H13       1.0  0.39810  0.73040  0.75450  1.0000
  H   H14       1.0  0.10190  0.76960  0.75450  1.0000
  H   H15       1.0  0.89810  0.26960  0.74550  1.0000
  H   H16       1.0  0.60190  0.23040  0.74550  1.0000
  C   C33       1.0  0.55670  0.13920  0.22260  1.0000
  C   C34       1.0  0.94330  0.36080  0.22260  1.0000
  C   C35       1.0  0.05670  0.86080  0.27740  1.0000
  C   C36       1.0  0.44330  0.63920  0.27740  1.0000
  C   C37       1.0  0.44330  0.86080  0.77740  1.0000
  C   C38       1.0  0.05670  0.63920  0.77740  1.0000
  C   C39       1.0  0.94330  0.13920  0.72260  1.0000
  C   C40       1.0  0.55670  0.36080  0.72260  1.0000
  C   C41       1.0  0.61630  0.07110  0.23850  1.0000
  C   C42       1.0  0.88370  0.42890  0.23850  1.0000
  C   C43       1.0  0.11630  0.92890  0.26150  1.0000
  C   C44       1.0  0.38370  0.57110  0.26150  1.0000
  C   C45       1.0  0.38370  0.92890  0.76150  1.0000
  C   C46       1.0  0.11630  0.57110  0.76150  1.0000
  C   C47       1.0  0.88370  0.07110  0.73850  1.0000
  C   C48       1.0  0.61630  0.42890  0.73850  1.0000
  C   C49       1.0  0.17670  0.58630  0.05880  1.0000
  C   C50       1.0  0.32330  0.91370  0.05880  1.0000
  C   C51       1.0  0.67670  0.41370  0.44120  1.0000
  C   C52       1.0  0.82330  0.08630  0.44120  1.0000
  C   C53       1.0  0.82330  0.41370  0.94120  1.0000
  C   C54       1.0  0.67670  0.08630  0.94120  1.0000
  C   C55       1.0  0.32330  0.58630  0.55880  1.0000
  C   C56       1.0  0.17670  0.91370  0.55880  1.0000
  C   C57       1.0  0.21630  0.67470  0.03340  1.0000
  C   C58       1.0  0.28370  0.82530  0.03340  1.0000
  C   C59       1.0  0.71630  0.32530  0.46660  1.0000
  C   C60       1.0  0.78370  0.17470  0.46660  1.0000
  C   C61       1.0  0.78370  0.32530  0.96660  1.0000
  C   C62       1.0  0.71630  0.17470  0.96660  1.0000
  C   C63       1.0  0.28370  0.67470  0.53340  1.0000
  C   C64       1.0  0.21630  0.82530  0.53340  1.0000
  C   C65       1.0  0.23020  0.70700  0.94280  1.0000
  C   C66       1.0  0.26980  0.79300  0.94280  1.0000
  C   C67       1.0  0.73020  0.29300  0.55720  1.0000
  C   C68       1.0  0.76980  0.20700  0.55720  1.0000
  C   C69       1.0  0.76980  0.29300  0.05720  1.0000
  C   C70       1.0  0.73020  0.20700  0.05720  1.0000
  C   C71       1.0  0.26980  0.70700  0.44280  1.0000
  C   C72       1.0  0.23020  0.79300  0.44280  1.0000
  H   H17       1.0  0.21540  0.67600  0.88720  1.0000
  H   H18       1.0  0.28460  0.82400  0.88720  1.0000
  H   H19       1.0  0.71540  0.32400  0.61280  1.0000
  H   H20       1.0  0.78460  0.17600  0.61280  1.0000
  H   H21       1.0  0.78460  0.32400  0.11280  1.0000
  H   H22       1.0  0.71540  0.17600  0.11280  1.0000
  H   H23       1.0  0.28460  0.67600  0.38720  1.0000
  H   H24       1.0  0.21540  0.82400  0.38720  1.0000
  O   O1        1.0  0.30470  0.45160  0.08360  1.0000
  O   O2        1.0  0.19530  0.04840  0.08360  1.0000
  O   O3        1.0  0.80470  0.54840  0.41640  1.0000
  O   O4        1.0  0.69530  0.95160  0.41640  1.0000
  O   O5        1.0  0.69530  0.54840  0.91640  1.0000
  O   O6        1.0  0.80470  0.95160  0.91640  1.0000
  O   O7        1.0  0.19530  0.45160  0.58360  1.0000
  O   O8        1.0  0.30470  0.04840  0.58360  1.0000
  O   O9        1.0  0.23360  0.44160  0.32190  1.0000
  O   O10       1.0  0.26640  0.05840  0.32190  1.0000
  O   O11       1.0  0.73360  0.55840  0.17810  1.0000
  O   O12       1.0  0.76640  0.94160  0.17810  1.0000
  O   O13       1.0  0.76640  0.55840  0.67810  1.0000
  O   O14       1.0  0.73360  0.94160  0.67810  1.0000
  O   O15       1.0  0.26640  0.44160  0.82190  1.0000
  O   O16       1.0  0.23360  0.05840  0.82190  1.0000
  O   O17       1.0  0.33070  0.30520  0.22360  1.0000
  O   O18       1.0  0.16930  0.19480  0.22360  1.0000
  O   O19       1.0  0.83070  0.69480  0.27640  1.0000
  O   O20       1.0  0.66930  0.80520  0.27640  1.0000
  O   O21       1.0  0.66930  0.69480  0.77640  1.0000
  O   O22       1.0  0.83070  0.80520  0.77640  1.0000
  O   O23       1.0  0.16930  0.30520  0.72360  1.0000
  O   O24       1.0  0.33070  0.19480  0.72360  1.0000
  O   O25       1.0  0.31976  0.16090  0.15780  1.0000
  O   O26       1.0  0.18024  0.33910  0.15780  1.0000
  O   O27       1.0  0.81976  0.83910  0.34220  1.0000
  O   O28       1.0  0.68024  0.66090  0.34220  1.0000
  O   O29       1.0  0.68024  0.83910  0.84220  1.0000
  O   O30       1.0  0.81976  0.66090  0.84220  1.0000
  O   O31       1.0  0.18024  0.16090  0.65780  1.0000
  O   O32       1.0  0.31976  0.33910  0.65780  1.0000
  O   O33       1.0  0.60418  0.98340  0.23760  1.0000
  O   O34       1.0  0.89582  0.51660  0.23760  1.0000
  O   O35       1.0  0.10418  0.01660  0.26240  1.0000
  O   O36       1.0  0.39582  0.48340  0.26240  1.0000
  O   O37       1.0  0.39582  0.01660  0.76240  1.0000
  O   O38       1.0  0.10418  0.48340  0.76240  1.0000
  O   O39       1.0  0.89582  0.98340  0.73760  1.0000
  O   O40       1.0  0.60418  0.51660  0.73760  1.0000
  O   O41       1.0  0.67980  0.10150  0.25670  1.0000
  O   O42       1.0  0.82020  0.39850  0.25670  1.0000
  O   O43       1.0  0.17980  0.89850  0.24330  1.0000
  O   O44       1.0  0.32020  0.60150  0.24330  1.0000
  O   O45       1.0  0.32020  0.89850  0.74330  1.0000
  O   O46       1.0  0.17980  0.60150  0.74330  1.0000
  O   O47       1.0  0.82020  0.10150  0.75670  1.0000
  O   O48       1.0  0.67980  0.39850  0.75670  1.0000
  O   O49       1.0  0.18370  0.55430  0.14540  1.0000
  O   O50       1.0  0.31630  0.94570  0.14540  1.0000
  O   O51       1.0  0.68370  0.44570  0.35460  1.0000
  O   O52       1.0  0.81630  0.05430  0.35460  1.0000
  O   O53       1.0  0.81630  0.44570  0.85460  1.0000
  O   O54       1.0  0.68370  0.05430  0.85460  1.0000
  O   O55       1.0  0.31630  0.55430  0.64540  1.0000
  O   O56       1.0  0.18370  0.94570  0.64540  1.0000
  O   O57       1.0  0.13810  0.54940  0.99500  1.0000
  O   O58       1.0  0.36190  0.95060  0.99500  1.0000
  O   O59       1.0  0.63810  0.45060  0.50500  1.0000
  O   O60       1.0  0.86190  0.04940  0.50500  1.0000
  O   O61       1.0  0.86190  0.45060  0.00500  1.0000
  O   O62       1.0  0.63810  0.04940  0.00500  1.0000
  O   O63       1.0  0.36190  0.54940  0.49500  1.0000
  O   O64       1.0  0.13810  0.95060  0.49500  1.0000
  S   S1        1.0  0.25000  0.75000  0.11939  1.0000
  S   S2        1.0  0.75000  0.25000  0.38061  1.0000
  S   S3        1.0  0.75000  0.25000  0.88061  1.0000
  S   S4        1.0  0.25000  0.75000  0.61939  1.0000
  S   S5        1.0  0.47014  0.09841  0.19991  1.0000
  S   S6        1.0  0.02986  0.40159  0.19991  1.0000
  S   S7        1.0  0.97014  0.90159  0.30009  1.0000
  S   S8        1.0  0.52986  0.59841  0.30009  1.0000
  S   S9        1.0  0.52986  0.90159  0.80009  1.0000
  S   S10       1.0  0.97014  0.59841  0.80009  1.0000
  S   S11       1.0  0.02986  0.09841  0.69991  1.0000
  S   S12       1.0  0.47014  0.40159  0.69991  1.0000
  U   U1        1.0  0.26925  0.44789  0.20235  1.0000
  U   U2        1.0  0.23075  0.05211  0.20235  1.0000
  U   U3        1.0  0.76925  0.55211  0.29765  1.0000
  U   U4        1.0  0.73075  0.94789  0.29765  1.0000
  U   U5        1.0  0.73075  0.55211  0.79765  1.0000
  U   U6        1.0  0.76925  0.94789  0.79765  1.0000
  U   U7        1.0  0.23075  0.44789  0.70235  1.0000
  U   U8        1.0  0.26925  0.05211  0.70235  1.0000
