data_image0
_chemical_formula_structural       U2S6O28C8H2C2H2C4H2C4H2C4H2C4H2C10U2O4
_chemical_formula_sum              "U4 S6 O32 C36 H12"
_cell_length_a       10.8376
_cell_length_b       12.8214
_cell_length_c       17.239
_cell_angle_alpha    103.158
_cell_angle_beta     104.095
_cell_angle_gamma    106.02

_space_group_name_H-M_alt    "P 1"
_space_group_IT_number       1

loop_
  _space_group_symop_operation_xyz
  'x, y, z'

loop_
  _atom_site_type_symbol
  _atom_site_label
  _atom_site_symmetry_multiplicity
  _atom_site_fract_x
  _atom_site_fract_y
  _atom_site_fract_z
  _atom_site_occupancy
  U   U1        1.0  0.22125  0.89806  0.86256  1.0000
  U   U2        1.0  0.77875  0.10194  0.13744  1.0000
  S   S1        1.0  0.37381  0.05449  0.20557  1.0000
  S   S2        1.0  0.62619  0.94551  0.79443  1.0000
  S   S3        1.0  0.38187  0.58489  0.68757  1.0000
  S   S4        1.0  0.61813  0.41511  0.31243  1.0000
  S   S5        1.0  0.91638  0.10587  0.70989  1.0000
  S   S6        1.0  0.08362  0.89413  0.29011  1.0000
  O   O1        1.0  0.48860  0.14330  0.38991  1.0000
  O   O2        1.0  0.51140  0.85670  0.61009  1.0000
  O   O3        1.0  0.43650  0.39340  0.57908  1.0000
  O   O4        1.0  0.56350  0.60660  0.42092  1.0000
  O   O5        1.0  0.29820  0.92010  0.01921  1.0000
  O   O6        1.0  0.70180  0.07990  0.98079  1.0000
  O   O7        1.0  0.73550  0.23310  0.64295  1.0000
  O   O8        1.0  0.26450  0.76690  0.35705  1.0000
  O   O9        1.0  0.37210  0.25250  0.41414  1.0000
  O   O10       1.0  0.62790  0.74750  0.58586  1.0000
  O   O11       1.0  0.26780  0.76110  0.75707  1.0000
  O   O12       1.0  0.73220  0.23890  0.24293  1.0000
  O   O13       1.0  0.09110  0.01490  0.81609  1.0000
  O   O14       1.0  0.90890  0.98510  0.18391  1.0000
  O   O15       1.0  0.60710  0.39280  0.67739  1.0000
  O   O16       1.0  0.39290  0.60720  0.32261  1.0000
  O   O17       1.0  0.07350  0.78460  0.84968  1.0000
  O   O18       1.0  0.92650  0.21540  0.15032  1.0000
  O   O19       1.0  0.17520  0.01790  0.97364  1.0000
  O   O20       1.0  0.82480  0.98210  0.02636  1.0000
  O   O21       1.0  0.69380  0.14630  0.51001  1.0000
  O   O22       1.0  0.30620  0.85370  0.48999  1.0000
  O   O23       1.0  0.36770  0.78730  0.89029  1.0000
  O   O24       1.0  0.63230  0.21270  0.10971  1.0000
  O   O25       1.0  0.11000  0.88930  0.71529  1.0000
  O   O26       1.0  0.89000  0.11070  0.28471  1.0000
  O   O27       1.0  0.36800  0.01000  0.87330  1.0000
  O   O28       1.0  0.63200  0.99000  0.12670  1.0000
  C   C1        1.0  0.83850  0.09490  0.60800  1.0000
  C   C2        1.0  0.16150  0.90510  0.39200  1.0000
  C   C3        1.0  0.25770  0.05690  0.11960  1.0000
  C   C4        1.0  0.74230  0.94310  0.88040  1.0000
  C   C5        1.0  0.49650  0.52090  0.71610  1.0000
  C   C6        1.0  0.50350  0.47910  0.28390  1.0000
  C   C7        1.0  0.22960  0.17800  0.22940  1.0000
  C   C8        1.0  0.77040  0.82200  0.77060  1.0000
  H   H1        1.0  0.19190  0.22680  0.25560  1.0000
  H   H2        1.0  0.80810  0.77320  0.74440  1.0000
  C   C9        1.0  0.51910  0.64260  0.84350  1.0000
  C   C10       1.0  0.48090  0.35740  0.15650  1.0000
  H   H3        1.0  0.55470  0.67910  0.90140  1.0000
  H   H4        1.0  0.44530  0.32090  0.09860  1.0000
  C   C11       1.0  0.41960  0.66260  0.79070  1.0000
  C   C12       1.0  0.58040  0.33740  0.20930  1.0000
  C   C13       1.0  0.86320  0.01610  0.55220  1.0000
  C   C14       1.0  0.13680  0.98390  0.44780  1.0000
  H   H5        1.0  0.82850  0.99820  0.49400  1.0000
  H   H6        1.0  0.17150  0.00180  0.50600  1.0000
  C   C15       1.0  0.32890  0.14760  0.27200  1.0000
  C   C16       1.0  0.67110  0.85240  0.72800  1.0000
  C   C17       1.0  0.18950  0.12860  0.14260  1.0000
  C   C18       1.0  0.81050  0.87140  0.85740  1.0000
  H   H7        1.0  0.12410  0.14250  0.10430  1.0000
  H   H8        1.0  0.87590  0.85750  0.89570  1.0000
  C   C19       1.0  0.98280  0.00330  0.67690  1.0000
  C   C20       1.0  0.01720  0.99670  0.32310  1.0000
  C   C21       1.0  0.56180  0.56050  0.80020  1.0000
  C   C22       1.0  0.43820  0.43950  0.19980  1.0000
  H   H9        1.0  0.62840  0.53560  0.82670  1.0000
  H   H10       1.0  0.37160  0.46440  0.17330  1.0000
  C   C23       1.0  0.34790  0.74100  0.81340  1.0000
  C   C24       1.0  0.65210  0.25900  0.18660  1.0000
  C   C25       1.0  0.94670  0.96510  0.59230  1.0000
  C   C26       1.0  0.05330  0.03490  0.40770  1.0000
  H   H11       1.0  0.97460  0.91020  0.56350  1.0000
  H   H12       1.0  0.02540  0.08980  0.43650  1.0000
  C   C27       1.0  0.39910  0.18260  0.36320  1.0000
  C   C28       1.0  0.60090  0.81740  0.63680  1.0000
  C   C29       1.0  0.06400  0.96650  0.73860  1.0000
  C   C30       1.0  0.93600  0.03350  0.26140  1.0000
  C   C31       1.0  0.24360  0.99440  0.03390  1.0000
  C   C32       1.0  0.75640  0.00560  0.96610  1.0000
  C   C33       1.0  0.51360  0.43140  0.65370  1.0000
  C   C34       1.0  0.48640  0.56860  0.34630  1.0000
  C   C35       1.0  0.75270  0.16140  0.58690  1.0000
  C   C36       1.0  0.24730  0.83860  0.41310  1.0000
  U   U3        1.0  0.55411  0.26026  0.53648  1.0000
  U   U4        1.0  0.44589  0.73974  0.46352  1.0000
  O   O29       1.0  0.67010  0.37010  0.51810  1.0000
  O   O30       1.0  0.32990  0.62990  0.48190  1.0000
  O   O31       1.0  0.43900  0.15200  0.55680  1.0000
  O   O32       1.0  0.56100  0.84800  0.44320  1.0000
