data_image0
_chemical_formula_structural       U8S12O64C24H8C24H8C24H8
_chemical_formula_sum              "U8 S12 O64 C72 H24"
_cell_length_a       11.2802
_cell_length_b       15.887
_cell_length_c       18.4345
_cell_angle_alpha    90
_cell_angle_beta     90
_cell_angle_gamma    90

_space_group_name_H-M_alt    "P 1"
_space_group_IT_number       1

loop_
  _space_group_symop_operation_xyz
  'x, y, z'

loop_
  _atom_site_type_symbol
  _atom_site_label
  _atom_site_symmetry_multiplicity
  _atom_site_fract_x
  _atom_site_fract_y
  _atom_site_fract_z
  _atom_site_occupancy
  U   U1        1.0  0.38910  0.07399  0.30328  1.0000
  U   U2        1.0  0.88910  0.92601  0.19672  1.0000
  U   U3        1.0  0.61090  0.57399  0.19672  1.0000
  U   U4        1.0  0.11090  0.42601  0.30328  1.0000
  U   U5        1.0  0.61090  0.92601  0.69672  1.0000
  U   U6        1.0  0.11090  0.07399  0.80328  1.0000
  U   U7        1.0  0.38910  0.42601  0.80328  1.0000
  U   U8        1.0  0.88910  0.57399  0.69672  1.0000
  S   S1        1.0  0.25000  0.75000  0.30460  1.0000
  S   S2        1.0  0.75000  0.25000  0.19540  1.0000
  S   S3        1.0  0.75000  0.25000  0.69540  1.0000
  S   S4        1.0  0.25000  0.75000  0.80460  1.0000
  S   S5        1.0  0.41353  0.25213  0.55078  1.0000
  S   S6        1.0  0.91353  0.74787  0.94922  1.0000
  S   S7        1.0  0.58647  0.75213  0.94922  1.0000
  S   S8        1.0  0.08647  0.24787  0.55078  1.0000
  S   S9        1.0  0.58647  0.74787  0.44922  1.0000
  S   S10       1.0  0.08647  0.25213  0.05078  1.0000
  S   S11       1.0  0.41353  0.24787  0.05078  1.0000
  S   S12       1.0  0.91353  0.75213  0.44922  1.0000
  O   O1        1.0  0.54080  0.04958  0.30031  1.0000
  O   O2        1.0  0.04080  0.95042  0.19969  1.0000
  O   O3        1.0  0.45920  0.54958  0.19969  1.0000
  O   O4        1.0  0.95920  0.45042  0.30031  1.0000
  O   O5        1.0  0.45920  0.95042  0.69969  1.0000
  O   O6        1.0  0.95920  0.04958  0.80031  1.0000
  O   O7        1.0  0.54080  0.45042  0.80031  1.0000
  O   O8        1.0  0.04080  0.54958  0.69969  1.0000
  O   O9        1.0  0.23650  0.09735  0.30528  1.0000
  O   O10       1.0  0.73650  0.90265  0.19472  1.0000
  O   O11       1.0  0.76350  0.59735  0.19472  1.0000
  O   O12       1.0  0.26350  0.40265  0.30528  1.0000
  O   O13       1.0  0.76350  0.90265  0.69472  1.0000
  O   O14       1.0  0.26350  0.09735  0.80528  1.0000
  O   O15       1.0  0.23650  0.40265  0.80528  1.0000
  O   O16       1.0  0.73650  0.59735  0.69472  1.0000
  O   O17       1.0  0.42740  0.17239  0.40362  1.0000
  O   O18       1.0  0.92740  0.82761  0.09638  1.0000
  O   O19       1.0  0.57260  0.67239  0.09638  1.0000
  O   O20       1.0  0.07260  0.32761  0.40362  1.0000
  O   O21       1.0  0.57260  0.82761  0.59638  1.0000
  O   O22       1.0  0.07260  0.17239  0.90362  1.0000
  O   O23       1.0  0.42740  0.32761  0.90362  1.0000
  O   O24       1.0  0.92740  0.67239  0.59638  1.0000
  O   O25       1.0  0.37760  0.04526  0.43604  1.0000
  O   O26       1.0  0.87760  0.95474  0.06396  1.0000
  O   O27       1.0  0.62240  0.54526  0.06396  1.0000
  O   O28       1.0  0.12240  0.45474  0.43604  1.0000
  O   O29       1.0  0.62240  0.95474  0.56396  1.0000
  O   O30       1.0  0.12240  0.04526  0.93604  1.0000
  O   O31       1.0  0.37760  0.45474  0.93604  1.0000
  O   O32       1.0  0.87760  0.54526  0.56396  1.0000
  O   O33       1.0  0.32920  0.92739  0.32747  1.0000
  O   O34       1.0  0.82920  0.07261  0.17253  1.0000
  O   O35       1.0  0.67080  0.42739  0.17253  1.0000
  O   O36       1.0  0.17080  0.57261  0.32747  1.0000
  O   O37       1.0  0.67080  0.07261  0.67253  1.0000
  O   O38       1.0  0.17080  0.92739  0.82747  1.0000
  O   O39       1.0  0.32920  0.57261  0.82747  1.0000
  O   O40       1.0  0.82920  0.42739  0.67253  1.0000
  O   O41       1.0  0.34940  0.96188  0.21325  1.0000
  O   O42       1.0  0.84940  0.03812  0.28675  1.0000
  O   O43       1.0  0.65060  0.46188  0.28675  1.0000
  O   O44       1.0  0.15060  0.53812  0.21325  1.0000
  O   O45       1.0  0.65060  0.03812  0.78675  1.0000
  O   O46       1.0  0.15060  0.96188  0.71325  1.0000
  O   O47       1.0  0.34940  0.53812  0.71325  1.0000
  O   O48       1.0  0.84940  0.46188  0.78675  1.0000
  O   O49       1.0  0.40610  0.37396  0.67610  1.0000
  O   O50       1.0  0.90610  0.62604  0.82390  1.0000
  O   O51       1.0  0.59390  0.87396  0.82390  1.0000
  O   O52       1.0  0.09390  0.12604  0.67610  1.0000
  O   O53       1.0  0.59390  0.62604  0.32390  1.0000
  O   O54       1.0  0.09390  0.37396  0.17610  1.0000
  O   O55       1.0  0.40610  0.12604  0.17610  1.0000
  O   O56       1.0  0.90610  0.87396  0.32390  1.0000
  O   O57       1.0  0.42000  0.27969  0.76202  1.0000
  O   O58       1.0  0.92000  0.72031  0.73798  1.0000
  O   O59       1.0  0.58000  0.77969  0.73798  1.0000
  O   O60       1.0  0.08000  0.22031  0.76202  1.0000
  O   O61       1.0  0.58000  0.72031  0.23798  1.0000
  O   O62       1.0  0.08000  0.27969  0.26202  1.0000
  O   O63       1.0  0.42000  0.22031  0.26202  1.0000
  O   O64       1.0  0.92000  0.77969  0.23798  1.0000
  C   C1        1.0  0.40300  0.11990  0.45286  1.0000
  C   C2        1.0  0.90300  0.88010  0.04714  1.0000
  C   C3        1.0  0.59700  0.61990  0.04714  1.0000
  C   C4        1.0  0.09700  0.38010  0.45286  1.0000
  C   C5        1.0  0.59700  0.88010  0.54714  1.0000
  C   C6        1.0  0.09700  0.11990  0.95286  1.0000
  C   C7        1.0  0.40300  0.38010  0.95286  1.0000
  C   C8        1.0  0.90300  0.61990  0.54714  1.0000
  C   C9        1.0  0.40160  0.14738  0.52915  1.0000
  C   C10       1.0  0.90160  0.85262  0.97085  1.0000
  C   C11       1.0  0.59840  0.64738  0.97085  1.0000
  C   C12       1.0  0.09840  0.35262  0.52915  1.0000
  C   C13       1.0  0.59840  0.85262  0.47085  1.0000
  C   C14       1.0  0.09840  0.14738  0.02915  1.0000
  C   C15       1.0  0.40160  0.35262  0.02915  1.0000
  C   C16       1.0  0.90160  0.64738  0.47085  1.0000
  C   C17       1.0  0.39420  0.09820  0.58950  1.0000
  C   C18       1.0  0.89420  0.90180  0.91050  1.0000
  C   C19       1.0  0.60580  0.59820  0.91050  1.0000
  C   C20       1.0  0.10580  0.40180  0.58950  1.0000
  C   C21       1.0  0.60580  0.90180  0.41050  1.0000
  C   C22       1.0  0.10580  0.09820  0.08950  1.0000
  C   C23       1.0  0.39420  0.40180  0.08950  1.0000
  C   C24       1.0  0.89420  0.59820  0.41050  1.0000
  H   H1        1.0  0.38630  0.04000  0.58820  1.0000
  H   H2        1.0  0.88630  0.96000  0.91180  1.0000
  H   H3        1.0  0.61370  0.54000  0.91180  1.0000
  H   H4        1.0  0.11370  0.46000  0.58820  1.0000
  H   H5        1.0  0.61370  0.96000  0.41180  1.0000
  H   H6        1.0  0.11370  0.04000  0.08820  1.0000
  H   H7        1.0  0.38630  0.46000  0.08820  1.0000
  H   H8        1.0  0.88630  0.54000  0.41180  1.0000
  C   C25       1.0  0.32250  0.90845  0.26095  1.0000
  C   C26       1.0  0.82250  0.09155  0.23905  1.0000
  C   C27       1.0  0.67750  0.40845  0.23905  1.0000
  C   C28       1.0  0.17750  0.59155  0.26095  1.0000
  C   C29       1.0  0.67750  0.09155  0.73905  1.0000
  C   C30       1.0  0.17750  0.90845  0.76095  1.0000
  C   C31       1.0  0.32250  0.59155  0.76095  1.0000
  C   C32       1.0  0.82250  0.40845  0.73905  1.0000
  C   C33       1.0  0.28330  0.82348  0.23977  1.0000
  C   C34       1.0  0.78330  0.17652  0.26023  1.0000
  C   C35       1.0  0.71670  0.32348  0.26023  1.0000
  C   C36       1.0  0.21670  0.67652  0.23977  1.0000
  C   C37       1.0  0.71670  0.17652  0.76023  1.0000
  C   C38       1.0  0.21670  0.82348  0.73977  1.0000
  C   C39       1.0  0.28330  0.67652  0.73977  1.0000
  C   C40       1.0  0.78330  0.32348  0.76023  1.0000
  C   C41       1.0  0.26880  0.79230  0.17175  1.0000
  C   C42       1.0  0.76880  0.20770  0.32825  1.0000
  C   C43       1.0  0.73120  0.29230  0.32825  1.0000
  C   C44       1.0  0.23120  0.70770  0.17175  1.0000
  C   C45       1.0  0.73120  0.20770  0.82825  1.0000
  C   C46       1.0  0.23120  0.79230  0.67175  1.0000
  C   C47       1.0  0.26880  0.70770  0.67175  1.0000
  C   C48       1.0  0.76880  0.29230  0.82825  1.0000
  H   H9        1.0  0.28220  0.82330  0.12980  1.0000
  H   H10       1.0  0.78220  0.17670  0.37020  1.0000
  H   H11       1.0  0.71780  0.32330  0.37020  1.0000
  H   H12       1.0  0.21780  0.67670  0.12980  1.0000
  H   H13       1.0  0.71780  0.17670  0.87020  1.0000
  H   H14       1.0  0.21780  0.82330  0.62980  1.0000
  H   H15       1.0  0.28220  0.67670  0.62980  1.0000
  H   H16       1.0  0.78220  0.32330  0.87020  1.0000
  C   C49       1.0  0.41280  0.29720  0.69593  1.0000
  C   C50       1.0  0.91280  0.70280  0.80407  1.0000
  C   C51       1.0  0.58720  0.79720  0.80407  1.0000
  C   C52       1.0  0.08720  0.20280  0.69593  1.0000
  C   C53       1.0  0.58720  0.70280  0.30407  1.0000
  C   C54       1.0  0.08720  0.29720  0.19593  1.0000
  C   C55       1.0  0.41280  0.20280  0.19593  1.0000
  C   C56       1.0  0.91280  0.79720  0.30407  1.0000
  C   C57       1.0  0.40980  0.22954  0.64165  1.0000
  C   C58       1.0  0.90980  0.77046  0.85835  1.0000
  C   C59       1.0  0.59020  0.72954  0.85835  1.0000
  C   C60       1.0  0.09020  0.27046  0.64165  1.0000
  C   C61       1.0  0.59020  0.77046  0.35835  1.0000
  C   C62       1.0  0.09020  0.22954  0.14165  1.0000
  C   C63       1.0  0.40980  0.27046  0.14165  1.0000
  C   C64       1.0  0.90980  0.72954  0.35835  1.0000
  C   C65       1.0  0.39980  0.14520  0.65389  1.0000
  C   C66       1.0  0.89980  0.85480  0.84611  1.0000
  C   C67       1.0  0.60020  0.64520  0.84611  1.0000
  C   C68       1.0  0.10020  0.35480  0.65389  1.0000
  C   C69       1.0  0.60020  0.85480  0.34611  1.0000
  C   C70       1.0  0.10020  0.14520  0.15389  1.0000
  C   C71       1.0  0.39980  0.35480  0.15389  1.0000
  C   C72       1.0  0.89980  0.64520  0.34611  1.0000
  H   H17       1.0  0.39700  0.12130  0.69990  1.0000
  H   H18       1.0  0.89700  0.87870  0.80010  1.0000
  H   H19       1.0  0.60300  0.62130  0.80010  1.0000
  H   H20       1.0  0.10300  0.37870  0.69990  1.0000
  H   H21       1.0  0.60300  0.87870  0.30010  1.0000
  H   H22       1.0  0.10300  0.12130  0.19990  1.0000
  H   H23       1.0  0.39700  0.37870  0.19990  1.0000
  H   H24       1.0  0.89700  0.62130  0.30010  1.0000
