data_image0
_chemical_formula_structural       O2CoC6H2C2H2C2H2C6H2C2H2C2H2C2H4C4H2C2H2N6O8
_chemical_formula_sum              "O10 Co1 C28 H20 N6"
_cell_length_a       8.777
_cell_length_b       11.448
_cell_length_c       12.602
_cell_angle_alpha    109.9
_cell_angle_beta     107.67
_cell_angle_gamma    93.65

_space_group_name_H-M_alt    "P 1"
_space_group_IT_number       1

loop_
  _space_group_symop_operation_xyz
  'x, y, z'

loop_
  _atom_site_type_symbol
  _atom_site_label
  _atom_site_symmetry_multiplicity
  _atom_site_fract_x
  _atom_site_fract_y
  _atom_site_fract_z
  _atom_site_occupancy
  O   O1        1.0  0.62920  0.42297  0.12506  1.0000
  O   O2        1.0  0.37080  0.57703  0.87494  1.0000
  Co  Co1       1.0  0.50000  0.50000  0.00000  1.0000
  C   C1        1.0  0.19060  0.17000  0.70000  1.0000
  C   C2        1.0  0.80940  0.83000  0.30000  1.0000
  C   C3        1.0  0.33500  0.14130  0.78440  1.0000
  C   C4        1.0  0.66500  0.85870  0.21560  1.0000
  C   C5        1.0  0.39590  0.03280  0.75140  1.0000
  C   C6        1.0  0.60410  0.96720  0.24860  1.0000
  H   H1        1.0  0.34960  0.97320  0.67320  1.0000
  H   H2        1.0  0.65040  0.02680  0.32680  1.0000
  C   C7        1.0  0.52470  0.01180  0.83190  1.0000
  C   C8        1.0  0.47530  0.98820  0.16810  1.0000
  H   H3        1.0  0.56720  0.93860  0.80910  1.0000
  H   H4        1.0  0.43280  0.06140  0.19090  1.0000
  C   C9        1.0  0.59010  0.10070  0.94700  1.0000
  C   C10       1.0  0.40990  0.89930  0.05300  1.0000
  H   H5        1.0  0.67600  0.08670  0.00330  1.0000
  H   H6        1.0  0.32400  0.91330  0.99670  1.0000
  C   C11       1.0  0.52870  0.21040  0.98030  1.0000
  C   C12       1.0  0.47130  0.78960  0.01970  1.0000
  C   C13       1.0  0.60280  0.30860  0.10770  1.0000
  C   C14       1.0  0.39720  0.69140  0.89230  1.0000
  C   C15       1.0  0.40990  0.63230  0.22660  1.0000
  C   C16       1.0  0.59010  0.36770  0.77340  1.0000
  H   H7        1.0  0.51510  0.63900  0.27720  1.0000
  H   H8        1.0  0.48490  0.36100  0.72280  1.0000
  C   C17       1.0  0.19920  0.58970  0.07140  1.0000
  C   C18       1.0  0.80080  0.41030  0.92860  1.0000
  H   H9        1.0  0.13050  0.55940  0.99150  1.0000
  H   H10       1.0  0.86950  0.44060  0.00850  1.0000
  C   C19       1.0  0.15640  0.65080  0.16630  1.0000
  C   C20       1.0  0.84360  0.34920  0.83370  1.0000
  H   H11       1.0  0.05470  0.67050  0.16440  1.0000
  H   H12       1.0  0.94530  0.32950  0.83560  1.0000
  C   C21       1.0  0.30540  0.74700  0.39120  1.0000
  C   C22       1.0  0.69460  0.25300  0.60880  1.0000
  H   H13       1.0  0.35300  0.69860  0.43860  1.0000
  H   H14       1.0  0.64700  0.30140  0.56140  1.0000
  H   H15       1.0  0.19730  0.75350  0.39480  1.0000
  H   H16       1.0  0.80270  0.24650  0.60520  1.0000
  C   C23       1.0  0.40720  0.87810  0.44680  1.0000
  C   C24       1.0  0.59280  0.12190  0.55320  1.0000
  C   C25       1.0  0.34480  0.97650  0.41940  1.0000
  C   C26       1.0  0.65520  0.02350  0.58060  1.0000
  H   H17       1.0  0.23990  0.96120  0.36480  1.0000
  H   H18       1.0  0.76010  0.03880  0.63520  1.0000
  C   C27       1.0  0.56400  0.90350  0.52790  1.0000
  C   C28       1.0  0.43600  0.09650  0.47210  1.0000
  H   H19       1.0  0.60780  0.83840  0.54720  1.0000
  H   H20       1.0  0.39220  0.16160  0.45280  1.0000
  N   N1        1.0  0.40250  0.22855  0.89755  1.0000
  N   N2        1.0  0.59750  0.77145  0.10245  1.0000
  N   N3        1.0  0.36000  0.57820  0.10960  1.0000
  N   N4        1.0  0.64000  0.42180  0.89040  1.0000
  N   N5        1.0  0.29090  0.67820  0.26580  1.0000
  N   N6        1.0  0.70910  0.32180  0.73420  1.0000
  O   O3        1.0  0.63840  0.26400  0.18654  1.0000
  O   O4        1.0  0.36160  0.73600  0.81346  1.0000
  O   O5        1.0  0.22510  0.22752  0.63932  1.0000
  O   O6        1.0  0.77490  0.77248  0.36068  1.0000
  O   O7        1.0  0.05500  0.12890  0.69490  1.0000
  O   O8        1.0  0.94500  0.87110  0.30510  1.0000
  O   O9        1.0  0.33890  0.33278  0.92622  1.0000
  O   O10       1.0  0.66110  0.66722  0.07378  1.0000
