data_image0
_chemical_formula_structural       Al3Na3O36C18H18
_chemical_formula_sum              "Al3 Na3 O36 C18 H18"
_cell_length_a       7.901
_cell_length_b       7.901
_cell_length_c       21.4646
_cell_angle_alpha    90
_cell_angle_beta     90
_cell_angle_gamma    120

_space_group_name_H-M_alt    "P 1"
_space_group_IT_number       1

loop_
  _space_group_symop_operation_xyz
  'x, y, z'

loop_
  _atom_site_type_symbol
  _atom_site_label
  _atom_site_symmetry_multiplicity
  _atom_site_fract_x
  _atom_site_fract_y
  _atom_site_fract_z
  _atom_site_occupancy
  Al  Al1       1.0  0.00000  0.00000  0.00000  1.0000
  Al  Al2       1.0  0.66667  0.33333  0.33333  1.0000
  Al  Al3       1.0  0.33333  0.66667  0.66667  1.0000
  Na  Na1       1.0  0.33330  0.66670  0.16670  1.0000
  Na  Na2       1.0  0.99997  0.00003  0.50003  1.0000
  Na  Na3       1.0  0.66663  0.33337  0.83337  1.0000
  O   O1        1.0  0.20964  0.17173  0.05210  1.0000
  O   O2        1.0  0.82827  0.03791  0.05210  1.0000
  O   O3        1.0  0.96209  0.79036  0.05210  1.0000
  O   O4        1.0  0.87631  0.50506  0.38543  1.0000
  O   O5        1.0  0.49494  0.37124  0.38543  1.0000
  O   O6        1.0  0.62876  0.12369  0.38543  1.0000
  O   O7        1.0  0.54297  0.83840  0.71877  1.0000
  O   O8        1.0  0.16160  0.70458  0.71877  1.0000
  O   O9        1.0  0.29542  0.45703  0.71877  1.0000
  O   O10       1.0  0.79036  0.82827  0.94790  1.0000
  O   O11       1.0  0.17173  0.96209  0.94790  1.0000
  O   O12       1.0  0.03791  0.20964  0.94790  1.0000
  O   O13       1.0  0.12369  0.49494  0.61457  1.0000
  O   O14       1.0  0.50506  0.62876  0.61457  1.0000
  O   O15       1.0  0.37124  0.87631  0.61457  1.0000
  O   O16       1.0  0.45703  0.16160  0.28123  1.0000
  O   O17       1.0  0.83840  0.29542  0.28123  1.0000
  O   O18       1.0  0.70458  0.54297  0.28123  1.0000
  O   O19       1.0  0.38936  0.44255  0.10528  1.0000
  O   O20       1.0  0.55745  0.94681  0.10528  1.0000
  O   O21       1.0  0.05319  0.61064  0.10528  1.0000
  O   O22       1.0  0.05603  0.77588  0.43861  1.0000
  O   O23       1.0  0.22412  0.28014  0.43861  1.0000
  O   O24       1.0  0.71986  0.94397  0.43861  1.0000
  O   O25       1.0  0.72269  0.10922  0.77195  1.0000
  O   O26       1.0  0.89078  0.61348  0.77195  1.0000
  O   O27       1.0  0.38652  0.27731  0.77195  1.0000
  O   O28       1.0  0.61064  0.55745  0.89472  1.0000
  O   O29       1.0  0.44255  0.05319  0.89472  1.0000
  O   O30       1.0  0.94681  0.38936  0.89472  1.0000
  O   O31       1.0  0.94397  0.22412  0.56139  1.0000
  O   O32       1.0  0.77588  0.71986  0.56139  1.0000
  O   O33       1.0  0.28014  0.05603  0.56139  1.0000
  O   O34       1.0  0.27731  0.89078  0.22805  1.0000
  O   O35       1.0  0.10922  0.38652  0.22805  1.0000
  O   O36       1.0  0.61348  0.72269  0.22805  1.0000
  C   C1        1.0  0.26110  0.34230  0.06832  1.0000
  C   C2        1.0  0.65770  0.91880  0.06832  1.0000
  C   C3        1.0  0.08120  0.73890  0.06832  1.0000
  C   C4        1.0  0.92777  0.67563  0.40165  1.0000
  C   C5        1.0  0.32437  0.25213  0.40165  1.0000
  C   C6        1.0  0.74787  0.07223  0.40165  1.0000
  C   C7        1.0  0.59443  0.00897  0.73499  1.0000
  C   C8        1.0  0.99103  0.58547  0.73499  1.0000
  C   C9        1.0  0.41453  0.40557  0.73499  1.0000
  C   C10       1.0  0.73890  0.65770  0.93168  1.0000
  C   C11       1.0  0.34230  0.08120  0.93168  1.0000
  C   C12       1.0  0.91880  0.26110  0.93168  1.0000
  C   C13       1.0  0.07223  0.32437  0.59835  1.0000
  C   C14       1.0  0.67563  0.74787  0.59835  1.0000
  C   C15       1.0  0.25213  0.92777  0.59835  1.0000
  C   C16       1.0  0.40557  0.99103  0.26501  1.0000
  C   C17       1.0  0.00897  0.41453  0.26501  1.0000
  C   C18       1.0  0.58547  0.59443  0.26501  1.0000
  H   H1        1.0  0.19430  0.39890  0.05030  1.0000
  H   H2        1.0  0.60110  0.79540  0.05030  1.0000
  H   H3        1.0  0.20460  0.80570  0.05030  1.0000
  H   H4        1.0  0.86097  0.73223  0.38363  1.0000
  H   H5        1.0  0.26777  0.12873  0.38363  1.0000
  H   H6        1.0  0.87127  0.13903  0.38363  1.0000
  H   H7        1.0  0.52763  0.06557  0.71697  1.0000
  H   H8        1.0  0.93443  0.46207  0.71697  1.0000
  H   H9        1.0  0.53793  0.47237  0.71697  1.0000
  H   H10       1.0  0.80570  0.60110  0.94970  1.0000
  H   H11       1.0  0.39890  0.20460  0.94970  1.0000
  H   H12       1.0  0.79540  0.19430  0.94970  1.0000
  H   H13       1.0  0.13903  0.26777  0.61637  1.0000
  H   H14       1.0  0.73223  0.87127  0.61637  1.0000
  H   H15       1.0  0.12873  0.86097  0.61637  1.0000
  H   H16       1.0  0.47237  0.93443  0.28303  1.0000
  H   H17       1.0  0.06557  0.53793  0.28303  1.0000
  H   H18       1.0  0.46207  0.52763  0.28303  1.0000
