data_image0
_chemical_formula_structural       Al2Na2O24C4H4C4H4C4H4
_chemical_formula_sum              "Al2 Na2 O24 C12 H12"
_cell_length_a       7.9689
_cell_length_b       8.7685
_cell_length_c       11.864
_cell_angle_alpha    90
_cell_angle_beta     90.819
_cell_angle_gamma    90

_space_group_name_H-M_alt    "P 1"
_space_group_IT_number       1

loop_
  _space_group_symop_operation_xyz
  'x, y, z'

loop_
  _atom_site_type_symbol
  _atom_site_label
  _atom_site_symmetry_multiplicity
  _atom_site_fract_x
  _atom_site_fract_y
  _atom_site_fract_z
  _atom_site_occupancy
  Al  Al1       1.0  0.50000  0.00000  0.50000  1.0000
  Al  Al2       1.0  0.00000  0.50000  0.00000  1.0000
  Na  Na1       1.0  0.50000  0.00000  0.00000  1.0000
  Na  Na2       1.0  0.00000  0.50000  0.50000  1.0000
  O   O1        1.0  0.38489  0.97451  0.63727  1.0000
  O   O2        1.0  0.11511  0.47451  0.86273  1.0000
  O   O3        1.0  0.61511  0.02549  0.36273  1.0000
  O   O4        1.0  0.88489  0.52549  0.13727  1.0000
  O   O5        1.0  0.35704  0.96077  0.82166  1.0000
  O   O6        1.0  0.14296  0.46077  0.67834  1.0000
  O   O7        1.0  0.64296  0.03923  0.17834  1.0000
  O   O8        1.0  0.85704  0.53923  0.32166  1.0000
  O   O9        1.0  0.57603  0.19213  0.55186  1.0000
  O   O10       1.0  0.92397  0.69213  0.94814  1.0000
  O   O11       1.0  0.42397  0.80787  0.44814  1.0000
  O   O12       1.0  0.07603  0.30787  0.05186  1.0000
  O   O13       1.0  0.74533  0.38927  0.56728  1.0000
  O   O14       1.0  0.75467  0.88927  0.93272  1.0000
  O   O15       1.0  0.25467  0.61073  0.43272  1.0000
  O   O16       1.0  0.24533  0.11073  0.06728  1.0000
  O   O17       1.0  0.59305  0.24694  0.92481  1.0000
  O   O18       1.0  0.90695  0.74694  0.57519  1.0000
  O   O19       1.0  0.40695  0.75306  0.07519  1.0000
  O   O20       1.0  0.09305  0.25306  0.42481  1.0000
  O   O21       1.0  0.80366  0.41044  0.93615  1.0000
  O   O22       1.0  0.69634  0.91044  0.56385  1.0000
  O   O23       1.0  0.19634  0.58956  0.06385  1.0000
  O   O24       1.0  0.30366  0.08956  0.43615  1.0000
  C   C1        1.0  0.43870  0.98670  0.73718  1.0000
  C   C2        1.0  0.06130  0.48670  0.76282  1.0000
  C   C3        1.0  0.56130  0.01330  0.26282  1.0000
  C   C4        1.0  0.93870  0.51330  0.23718  1.0000
  H   H1        1.0  0.54930  0.01790  0.74760  1.0000
  H   H2        1.0  0.95070  0.51790  0.75240  1.0000
  H   H3        1.0  0.45070  0.98210  0.25240  1.0000
  H   H4        1.0  0.04930  0.48210  0.24760  1.0000
  C   C5        1.0  0.70460  0.26700  0.52593  1.0000
  C   C6        1.0  0.79540  0.76700  0.97407  1.0000
  C   C7        1.0  0.29540  0.73300  0.47407  1.0000
  C   C8        1.0  0.20460  0.23300  0.02593  1.0000
  H   H5        1.0  0.77380  0.22610  0.47120  1.0000
  H   H6        1.0  0.72620  0.72610  0.02880  1.0000
  H   H7        1.0  0.22620  0.77390  0.52880  1.0000
  H   H8        1.0  0.27380  0.27390  0.97120  1.0000
  C   C9        1.0  0.72370  0.29580  0.96799  1.0000
  C   C10       1.0  0.77630  0.79580  0.53201  1.0000
  C   C11       1.0  0.27630  0.70420  0.03201  1.0000
  C   C12       1.0  0.22370  0.20420  0.46799  1.0000
  H   H9        1.0  0.76680  0.24270  0.02980  1.0000
  H   H10       1.0  0.73320  0.74270  0.47020  1.0000
  H   H11       1.0  0.23320  0.75730  0.97020  1.0000
  H   H12       1.0  0.26680  0.25730  0.52980  1.0000
