data_image0
_chemical_formula_structural       Al2Na2O24C4H4C4H4C4H4
_chemical_formula_sum              "Al2 Na2 O24 C12 H12"
_cell_length_a       7.925
_cell_length_b       8.7275
_cell_length_c       11.799
_cell_angle_alpha    90
_cell_angle_beta     90.919
_cell_angle_gamma    90

_space_group_name_H-M_alt    "P 1"
_space_group_IT_number       1

loop_
  _space_group_symop_operation_xyz
  'x, y, z'

loop_
  _atom_site_type_symbol
  _atom_site_label
  _atom_site_symmetry_multiplicity
  _atom_site_fract_x
  _atom_site_fract_y
  _atom_site_fract_z
  _atom_site_occupancy
  Al  Al1       1.0  0.50000  0.00000  0.50000  1.0000
  Al  Al2       1.0  0.00000  0.50000  0.00000  1.0000
  Na  Na1       1.0  0.50000  0.00000  0.00000  1.0000
  Na  Na2       1.0  0.00000  0.50000  0.50000  1.0000
  O   O1        1.0  0.38130  0.97470  0.63685  1.0000
  O   O2        1.0  0.11870  0.47470  0.86315  1.0000
  O   O3        1.0  0.61870  0.02530  0.36315  1.0000
  O   O4        1.0  0.88130  0.52530  0.13685  1.0000
  O   O5        1.0  0.35312  0.96168  0.82285  1.0000
  O   O6        1.0  0.14688  0.46168  0.67715  1.0000
  O   O7        1.0  0.64688  0.03832  0.17715  1.0000
  O   O8        1.0  0.85312  0.53832  0.32285  1.0000
  O   O9        1.0  0.57531  0.19312  0.55237  1.0000
  O   O10       1.0  0.92469  0.69312  0.94763  1.0000
  O   O11       1.0  0.42469  0.80688  0.44763  1.0000
  O   O12       1.0  0.07531  0.30688  0.05237  1.0000
  O   O13       1.0  0.74525  0.39174  0.56845  1.0000
  O   O14       1.0  0.75475  0.89174  0.93155  1.0000
  O   O15       1.0  0.25475  0.60826  0.43155  1.0000
  O   O16       1.0  0.24525  0.10826  0.06845  1.0000
  O   O17       1.0  0.59049  0.24639  0.92357  1.0000
  O   O18       1.0  0.90951  0.74639  0.57643  1.0000
  O   O19       1.0  0.40951  0.75361  0.07643  1.0000
  O   O20       1.0  0.09049  0.25361  0.42357  1.0000
  O   O21       1.0  0.80351  0.41078  0.93358  1.0000
  O   O22       1.0  0.69649  0.91078  0.56642  1.0000
  O   O23       1.0  0.19649  0.58922  0.06642  1.0000
  O   O24       1.0  0.30351  0.08922  0.43358  1.0000
  C   C1        1.0  0.43609  0.98880  0.73776  1.0000
  C   C2        1.0  0.06391  0.48880  0.76224  1.0000
  C   C3        1.0  0.56391  0.01120  0.26224  1.0000
  C   C4        1.0  0.93609  0.51120  0.23776  1.0000
  H   H1        1.0  0.54910  0.02270  0.74860  1.0000
  H   H2        1.0  0.95090  0.52270  0.75140  1.0000
  H   H3        1.0  0.45090  0.97730  0.25140  1.0000
  H   H4        1.0  0.04910  0.47730  0.24860  1.0000
  C   C5        1.0  0.70490  0.26851  0.52575  1.0000
  C   C6        1.0  0.79510  0.76851  0.97425  1.0000
  C   C7        1.0  0.29510  0.73149  0.47425  1.0000
  C   C8        1.0  0.20490  0.23149  0.02575  1.0000
  H   H5        1.0  0.77560  0.22720  0.46910  1.0000
  H   H6        1.0  0.72440  0.72720  0.03090  1.0000
  H   H7        1.0  0.22440  0.77280  0.53090  1.0000
  H   H8        1.0  0.27560  0.27280  0.96910  1.0000
  C   C9        1.0  0.72320  0.29462  0.96694  1.0000
  C   C10       1.0  0.77680  0.79462  0.53306  1.0000
  C   C11       1.0  0.27680  0.70538  0.03306  1.0000
  C   C12       1.0  0.22320  0.20538  0.46694  1.0000
  H   H9        1.0  0.76830  0.24010  0.03020  1.0000
  H   H10       1.0  0.73170  0.74010  0.46980  1.0000
  H   H11       1.0  0.23170  0.75990  0.96980  1.0000
  H   H12       1.0  0.26830  0.25990  0.53020  1.0000
