data_image0
_chemical_formula_structural       Al2Na2O24C4H4C4H4C4H4
_chemical_formula_sum              "Al2 Na2 O24 C12 H12"
_cell_length_a       7.8956
_cell_length_b       8.713
_cell_length_c       11.7707
_cell_angle_alpha    90
_cell_angle_beta     90.918
_cell_angle_gamma    90

_space_group_name_H-M_alt    "P 1"
_space_group_IT_number       1

loop_
  _space_group_symop_operation_xyz
  'x, y, z'

loop_
  _atom_site_type_symbol
  _atom_site_label
  _atom_site_symmetry_multiplicity
  _atom_site_fract_x
  _atom_site_fract_y
  _atom_site_fract_z
  _atom_site_occupancy
  Al  Al1       1.0  0.50000  0.00000  0.50000  1.0000
  Al  Al2       1.0  0.00000  0.50000  0.00000  1.0000
  Na  Na1       1.0  0.50000  0.00000  0.00000  1.0000
  Na  Na2       1.0  0.00000  0.50000  0.50000  1.0000
  O   O1        1.0  0.37966  0.97504  0.63668  1.0000
  O   O2        1.0  0.12034  0.47504  0.86332  1.0000
  O   O3        1.0  0.62034  0.02496  0.36332  1.0000
  O   O4        1.0  0.87966  0.52496  0.13668  1.0000
  O   O5        1.0  0.35159  0.96228  0.82359  1.0000
  O   O6        1.0  0.14841  0.46228  0.67641  1.0000
  O   O7        1.0  0.64841  0.03772  0.17641  1.0000
  O   O8        1.0  0.85159  0.53772  0.32359  1.0000
  O   O9        1.0  0.57480  0.19331  0.55258  1.0000
  O   O10       1.0  0.92520  0.69331  0.94742  1.0000
  O   O11       1.0  0.42520  0.80669  0.44742  1.0000
  O   O12       1.0  0.07480  0.30669  0.05258  1.0000
  O   O13       1.0  0.74565  0.39290  0.56910  1.0000
  O   O14       1.0  0.75435  0.89290  0.93090  1.0000
  O   O15       1.0  0.25435  0.60710  0.43090  1.0000
  O   O16       1.0  0.24565  0.10710  0.06910  1.0000
  O   O17       1.0  0.58954  0.24587  0.92286  1.0000
  O   O18       1.0  0.91046  0.74587  0.57714  1.0000
  O   O19       1.0  0.41046  0.75413  0.07714  1.0000
  O   O20       1.0  0.08954  0.25413  0.42286  1.0000
  O   O21       1.0  0.80339  0.41089  0.93232  1.0000
  O   O22       1.0  0.69661  0.91089  0.56768  1.0000
  O   O23       1.0  0.19661  0.58911  0.06768  1.0000
  O   O24       1.0  0.30339  0.08911  0.43232  1.0000
  C   C1        1.0  0.43511  0.98996  0.73797  1.0000
  C   C2        1.0  0.06489  0.48996  0.76203  1.0000
  C   C3        1.0  0.56489  0.01004  0.26203  1.0000
  C   C4        1.0  0.93511  0.51004  0.23797  1.0000
  H   H1        1.0  0.54830  0.02470  0.74870  1.0000
  H   H2        1.0  0.95170  0.52470  0.75130  1.0000
  H   H3        1.0  0.45170  0.97530  0.25130  1.0000
  H   H4        1.0  0.04830  0.47530  0.24870  1.0000
  C   C5        1.0  0.70551  0.26894  0.52557  1.0000
  C   C6        1.0  0.79449  0.76894  0.97443  1.0000
  C   C7        1.0  0.29449  0.73106  0.47443  1.0000
  C   C8        1.0  0.20551  0.23106  0.02557  1.0000
  H   H5        1.0  0.77640  0.22790  0.46870  1.0000
  H   H6        1.0  0.72360  0.72790  0.03130  1.0000
  H   H7        1.0  0.22360  0.77210  0.53130  1.0000
  H   H8        1.0  0.27640  0.27210  0.96870  1.0000
  C   C9        1.0  0.72334  0.29403  0.96616  1.0000
  C   C10       1.0  0.77666  0.79403  0.53384  1.0000
  C   C11       1.0  0.27666  0.70597  0.03384  1.0000
  C   C12       1.0  0.22334  0.20597  0.46616  1.0000
  H   H9        1.0  0.76920  0.23930  0.02930  1.0000
  H   H10       1.0  0.73080  0.73930  0.47070  1.0000
  H   H11       1.0  0.23080  0.76070  0.97070  1.0000
  H   H12       1.0  0.26920  0.26070  0.52930  1.0000
