data_image0
_chemical_formula_structural       Al2Na2O24C4H4C4H4C4H4
_chemical_formula_sum              "Al2 Na2 O24 C12 H12"
_cell_length_a       9.0134
_cell_length_b       8.4633
_cell_length_c       11.918
_cell_angle_alpha    90
_cell_angle_beta     91.385
_cell_angle_gamma    90

_space_group_name_H-M_alt    "P 1"
_space_group_IT_number       1

loop_
  _space_group_symop_operation_xyz
  'x, y, z'

loop_
  _atom_site_type_symbol
  _atom_site_label
  _atom_site_symmetry_multiplicity
  _atom_site_fract_x
  _atom_site_fract_y
  _atom_site_fract_z
  _atom_site_occupancy
  Al  Al1       1.0  0.25000  0.26001  0.25000  1.0000
  Al  Al2       1.0  0.75000  0.73999  0.75000  1.0000
  Na  Na1       1.0  0.25000  0.24866  0.75000  1.0000
  Na  Na2       1.0  0.75000  0.75134  0.25000  1.0000
  O   O1        1.0  0.14497  0.25693  0.38585  1.0000
  O   O2        1.0  0.35503  0.25693  0.11415  1.0000
  O   O3        1.0  0.85503  0.74307  0.61415  1.0000
  O   O4        1.0  0.64497  0.74307  0.88585  1.0000
  O   O5        1.0  0.12383  0.25466  0.57025  1.0000
  O   O6        1.0  0.37617  0.25466  0.92975  1.0000
  O   O7        1.0  0.87617  0.74534  0.42975  1.0000
  O   O8        1.0  0.62383  0.74534  0.07025  1.0000
  O   O9        1.0  0.38795  0.11414  0.31128  1.0000
  O   O10       1.0  0.11205  0.11414  0.18872  1.0000
  O   O11       1.0  0.61205  0.88586  0.68872  1.0000
  O   O12       1.0  0.88795  0.88586  0.81128  1.0000
  O   O13       1.0  0.58707  0.96468  0.30258  1.0000
  O   O14       1.0  0.91293  0.96468  0.19742  1.0000
  O   O15       1.0  0.41293  0.03532  0.69742  1.0000
  O   O16       1.0  0.08707  0.03532  0.80258  1.0000
  O   O17       1.0  0.43295  0.41686  0.67600  1.0000
  O   O18       1.0  0.06705  0.41686  0.82400  1.0000
  O   O19       1.0  0.56705  0.58314  0.32400  1.0000
  O   O20       1.0  0.93295  0.58314  0.17600  1.0000
  O   O21       1.0  0.62781  0.57259  0.69387  1.0000
  O   O22       1.0  0.87219  0.57259  0.80613  1.0000
  O   O23       1.0  0.37219  0.42741  0.30613  1.0000
  O   O24       1.0  0.12781  0.42741  0.19387  1.0000
  C   C1        1.0  0.19480  0.26420  0.48566  1.0000
  C   C2        1.0  0.30520  0.26420  0.01434  1.0000
  C   C3        1.0  0.80520  0.73580  0.51434  1.0000
  C   C4        1.0  0.69480  0.73580  0.98566  1.0000
  H   H1        1.0  0.29660  0.27830  0.49510  1.0000
  H   H2        1.0  0.20340  0.27830  0.00490  1.0000
  H   H3        1.0  0.70340  0.72170  0.50490  1.0000
  H   H4        1.0  0.79660  0.72170  0.99510  1.0000
  C   C5        1.0  0.46530  0.00540  0.26928  1.0000
  C   C6        1.0  0.03470  0.00540  0.23072  1.0000
  C   C7        1.0  0.53470  0.99460  0.73072  1.0000
  C   C8        1.0  0.96530  0.99460  0.76928  1.0000
  H   H5        1.0  0.42490  0.95230  0.20740  1.0000
  H   H6        1.0  0.07510  0.95230  0.29260  1.0000
  H   H7        1.0  0.57510  0.04770  0.79260  1.0000
  H   H8        1.0  0.92490  0.04770  0.70740  1.0000
  C   C9        1.0  0.49520  0.53460  0.71143  1.0000
  C   C10       1.0  0.00480  0.53460  0.78857  1.0000
  C   C11       1.0  0.50480  0.46540  0.28857  1.0000
  C   C12       1.0  0.99520  0.46540  0.21143  1.0000
  H   H9        1.0  0.44020  0.60270  0.75540  1.0000
  H   H10       1.0  0.05980  0.60270  0.74460  1.0000
  H   H11       1.0  0.55980  0.39730  0.24460  1.0000
  H   H12       1.0  0.94020  0.39730  0.25540  1.0000
