data_image0
_chemical_formula_structural       Al2Na2O24C4H4C4H4C4H4
_chemical_formula_sum              "Al2 Na2 O24 C12 H12"
_cell_length_a       9.017
_cell_length_b       8.4224
_cell_length_c       11.8844
_cell_angle_alpha    90
_cell_angle_beta     91.3534
_cell_angle_gamma    90

_space_group_name_H-M_alt    "P 1"
_space_group_IT_number       1

loop_
  _space_group_symop_operation_xyz
  'x, y, z'

loop_
  _atom_site_type_symbol
  _atom_site_label
  _atom_site_symmetry_multiplicity
  _atom_site_fract_x
  _atom_site_fract_y
  _atom_site_fract_z
  _atom_site_occupancy
  Al  Al1       1.0  0.25000  0.25798  0.25000  1.0000
  Al  Al2       1.0  0.75000  0.74202  0.75000  1.0000
  Na  Na1       1.0  0.25000  0.25064  0.75000  1.0000
  Na  Na2       1.0  0.75000  0.74936  0.25000  1.0000
  O   O1        1.0  0.14367  0.25510  0.38566  1.0000
  O   O2        1.0  0.35633  0.25510  0.11434  1.0000
  O   O3        1.0  0.85633  0.74490  0.61434  1.0000
  O   O4        1.0  0.64367  0.74490  0.88566  1.0000
  O   O5        1.0  0.12265  0.25618  0.57090  1.0000
  O   O6        1.0  0.37735  0.25618  0.92910  1.0000
  O   O7        1.0  0.87735  0.74382  0.42910  1.0000
  O   O8        1.0  0.62265  0.74382  0.07090  1.0000
  O   O9        1.0  0.38759  0.11193  0.31229  1.0000
  O   O10       1.0  0.11241  0.11193  0.18771  1.0000
  O   O11       1.0  0.61241  0.88807  0.68771  1.0000
  O   O12       1.0  0.88759  0.88807  0.81229  1.0000
  O   O13       1.0  0.58830  0.96263  0.30275  1.0000
  O   O14       1.0  0.91170  0.96263  0.19725  1.0000
  O   O15       1.0  0.41170  0.03737  0.69725  1.0000
  O   O16       1.0  0.08830  0.03737  0.80275  1.0000
  O   O17       1.0  0.43205  0.41827  0.67452  1.0000
  O   O18       1.0  0.06795  0.41827  0.82548  1.0000
  O   O19       1.0  0.56795  0.58173  0.32548  1.0000
  O   O20       1.0  0.93205  0.58173  0.17452  1.0000
  O   O21       1.0  0.62867  0.57343  0.69315  1.0000
  O   O22       1.0  0.87133  0.57343  0.80685  1.0000
  O   O23       1.0  0.37133  0.42657  0.30685  1.0000
  O   O24       1.0  0.12867  0.42657  0.19315  1.0000
  C   C1        1.0  0.19400  0.26488  0.48592  1.0000
  C   C2        1.0  0.30600  0.26488  0.01408  1.0000
  C   C3        1.0  0.80600  0.73512  0.51408  1.0000
  C   C4        1.0  0.69400  0.73512  0.98592  1.0000
  H   H1        1.0  0.29570  0.28020  0.49520  1.0000
  H   H2        1.0  0.20430  0.28020  0.00480  1.0000
  H   H3        1.0  0.70430  0.71980  0.50480  1.0000
  H   H4        1.0  0.79570  0.71980  0.99520  1.0000
  C   C5        1.0  0.46593  0.00348  0.26926  1.0000
  C   C6        1.0  0.03407  0.00348  0.23074  1.0000
  C   C7        1.0  0.53407  0.99652  0.73074  1.0000
  C   C8        1.0  0.96593  0.99652  0.76926  1.0000
  H   H5        1.0  0.42620  0.95080  0.20670  1.0000
  H   H6        1.0  0.07380  0.95080  0.29330  1.0000
  H   H7        1.0  0.57380  0.04920  0.79330  1.0000
  H   H8        1.0  0.92620  0.04920  0.70670  1.0000
  C   C9        1.0  0.49472  0.53751  0.71008  1.0000
  C   C10       1.0  0.00528  0.53751  0.78992  1.0000
  C   C11       1.0  0.50528  0.46249  0.28992  1.0000
  C   C12       1.0  0.99472  0.46249  0.21008  1.0000
  H   H9        1.0  0.43960  0.60740  0.75300  1.0000
  H   H10       1.0  0.06040  0.60740  0.74700  1.0000
  H   H11       1.0  0.56040  0.39260  0.24700  1.0000
  H   H12       1.0  0.93960  0.39260  0.25300  1.0000
