data_image0
_chemical_formula_structural       Al4Na4O48C4H4C4H4C4H4C4H4C4H4C4H4
_chemical_formula_sum              "Al4 Na4 O48 C24 H24"
_cell_length_a       8.3058
_cell_length_b       14.35
_cell_length_c       14.2532
_cell_angle_alpha    90
_cell_angle_beta     90.263
_cell_angle_gamma    90

_space_group_name_H-M_alt    "P 1"
_space_group_IT_number       1

loop_
  _space_group_symop_operation_xyz
  'x, y, z'

loop_
  _atom_site_type_symbol
  _atom_site_label
  _atom_site_symmetry_multiplicity
  _atom_site_fract_x
  _atom_site_fract_y
  _atom_site_fract_z
  _atom_site_occupancy
  Al  Al1       1.0  0.74509  0.41788  0.26438  1.0000
  Al  Al2       1.0  0.25491  0.91788  0.23562  1.0000
  Al  Al3       1.0  0.25491  0.58212  0.73562  1.0000
  Al  Al4       1.0  0.74509  0.08212  0.76438  1.0000
  Na  Na1       1.0  0.24467  0.27205  0.00402  1.0000
  Na  Na2       1.0  0.75533  0.77205  0.49598  1.0000
  Na  Na3       1.0  0.75533  0.72795  0.99598  1.0000
  Na  Na4       1.0  0.24467  0.22795  0.50402  1.0000
  O   O1        1.0  0.55630  0.43232  0.19184  1.0000
  O   O2        1.0  0.44370  0.93232  0.30816  1.0000
  O   O3        1.0  0.44370  0.56768  0.80816  1.0000
  O   O4        1.0  0.55630  0.06768  0.69184  1.0000
  O   O5        1.0  0.35730  0.40047  0.09465  1.0000
  O   O6        1.0  0.64270  0.90047  0.40535  1.0000
  O   O7        1.0  0.64270  0.59953  0.90535  1.0000
  O   O8        1.0  0.35730  0.09953  0.59465  1.0000
  O   O9        1.0  0.65683  0.50655  0.34911  1.0000
  O   O10       1.0  0.34317  0.00655  0.15089  1.0000
  O   O11       1.0  0.34317  0.49345  0.65089  1.0000
  O   O12       1.0  0.65683  0.99345  0.84911  1.0000
  O   O13       1.0  0.62380  0.64444  0.41422  1.0000
  O   O14       1.0  0.37620  0.14444  0.08578  1.0000
  O   O15       1.0  0.37620  0.35556  0.58578  1.0000
  O   O16       1.0  0.62380  0.85556  0.91422  1.0000
  O   O17       1.0  0.92851  0.41326  0.34380  1.0000
  O   O18       1.0  0.07149  0.91326  0.15620  1.0000
  O   O19       1.0  0.07149  0.58674  0.65620  1.0000
  O   O20       1.0  0.92851  0.08674  0.84380  1.0000
  O   O21       1.0  0.13820  0.35218  0.41493  1.0000
  O   O22       1.0  0.86180  0.85218  0.08507  1.0000
  O   O23       1.0  0.86180  0.64782  0.58507  1.0000
  O   O24       1.0  0.13820  0.14782  0.91493  1.0000
  O   O25       1.0  0.82495  0.32543  0.18303  1.0000
  O   O26       1.0  0.17505  0.82543  0.31697  1.0000
  O   O27       1.0  0.17505  0.67457  0.81697  1.0000
  O   O28       1.0  0.82495  0.17457  0.68303  1.0000
  O   O29       1.0  0.00430  0.25643  0.09323  1.0000
  O   O30       1.0  0.99570  0.75643  0.40677  1.0000
  O   O31       1.0  0.99570  0.74357  0.90677  1.0000
  O   O32       1.0  0.00430  0.24357  0.59323  1.0000
  O   O33       1.0  0.65773  0.31966  0.33678  1.0000
  O   O34       1.0  0.34227  0.81966  0.16322  1.0000
  O   O35       1.0  0.34227  0.68034  0.66322  1.0000
  O   O36       1.0  0.65773  0.18034  0.83678  1.0000
  O   O37       1.0  0.49570  0.22501  0.41111  1.0000
  O   O38       1.0  0.50430  0.72501  0.08889  1.0000
  O   O39       1.0  0.50430  0.77499  0.58889  1.0000
  O   O40       1.0  0.49570  0.27499  0.91111  1.0000
  O   O41       1.0  0.85337  0.51065  0.19604  1.0000
  O   O42       1.0  0.14663  0.01065  0.30396  1.0000
  O   O43       1.0  0.14663  0.48935  0.80396  1.0000
  O   O44       1.0  0.85337  0.98935  0.69604  1.0000
  O   O45       1.0  0.91060  0.61491  0.08856  1.0000
  O   O46       1.0  0.08940  0.11491  0.41144  1.0000
  O   O47       1.0  0.08940  0.38509  0.91144  1.0000
  O   O48       1.0  0.91060  0.88509  0.58856  1.0000
  C   C1        1.0  0.48180  0.38088  0.13616  1.0000
  C   C2        1.0  0.51820  0.88088  0.36384  1.0000
  C   C3        1.0  0.51820  0.61912  0.86384  1.0000
  C   C4        1.0  0.48180  0.11912  0.63616  1.0000
  H   H1        1.0  0.52500  0.32210  0.12520  1.0000
  H   H2        1.0  0.47500  0.82210  0.37480  1.0000
  H   H3        1.0  0.47500  0.67790  0.87480  1.0000
  H   H4        1.0  0.52500  0.17790  0.62520  1.0000
  C   C5        1.0  0.69340  0.58953  0.36580  1.0000
  C   C6        1.0  0.30660  0.08953  0.13420  1.0000
  C   C7        1.0  0.30660  0.41047  0.63420  1.0000
  C   C8        1.0  0.69340  0.91047  0.86580  1.0000
  H   H5        1.0  0.78620  0.61130  0.33690  1.0000
  H   H6        1.0  0.21380  0.11130  0.16310  1.0000
  H   H7        1.0  0.21380  0.38870  0.66310  1.0000
  H   H8        1.0  0.78620  0.88870  0.83690  1.0000
  C   C9        1.0  0.01900  0.34722  0.36696  1.0000
  C   C10       1.0  0.98100  0.84722  0.13304  1.0000
  C   C11       1.0  0.98100  0.65278  0.63304  1.0000
  C   C12       1.0  0.01900  0.15278  0.86696  1.0000
  H   H9        1.0  0.99120  0.28840  0.34480  1.0000
  H   H10       1.0  0.00880  0.78840  0.15520  1.0000
  H   H11       1.0  0.00880  0.71160  0.65520  1.0000
  H   H12       1.0  0.99120  0.21160  0.84480  1.0000
  C   C13       1.0  0.95280  0.32128  0.13640  1.0000
  C   C14       1.0  0.04720  0.82128  0.36360  1.0000
  C   C15       1.0  0.04720  0.67872  0.86360  1.0000
  C   C16       1.0  0.95280  0.17872  0.63640  1.0000
  H   H13       1.0  0.01490  0.37520  0.13520  1.0000
  H   H14       1.0  0.98510  0.87520  0.36480  1.0000
  H   H15       1.0  0.98510  0.62480  0.86480  1.0000
  H   H16       1.0  0.01490  0.12480  0.63520  1.0000
  C   C17       1.0  0.52650  0.29599  0.36780  1.0000
  C   C18       1.0  0.47350  0.79599  0.13220  1.0000
  C   C19       1.0  0.47350  0.70401  0.63220  1.0000
  C   C20       1.0  0.52650  0.20401  0.86780  1.0000
  H   H17       1.0  0.44120  0.33670  0.35720  1.0000
  H   H18       1.0  0.55880  0.83670  0.14280  1.0000
  H   H19       1.0  0.55880  0.66330  0.64280  1.0000
  H   H20       1.0  0.44120  0.16330  0.85720  1.0000
  C   C21       1.0  0.81880  0.56280  0.12980  1.0000
  C   C22       1.0  0.18120  0.06280  0.37020  1.0000
  C   C23       1.0  0.18120  0.43720  0.87020  1.0000
  C   C24       1.0  0.81880  0.93720  0.62980  1.0000
  H   H21       1.0  0.71230  0.56220  0.10940  1.0000
  H   H22       1.0  0.28770  0.06220  0.39060  1.0000
  H   H23       1.0  0.28770  0.43780  0.89060  1.0000
  H   H24       1.0  0.71230  0.93780  0.60940  1.0000
