data_image0
_chemical_formula_structural       Al4Na4O48C4H4C4H4C4H4C4H4C4H4C4H4
_chemical_formula_sum              "Al4 Na4 O48 C24 H24"
_cell_length_a       8.1783
_cell_length_b       14.4588
_cell_length_c       14.1509
_cell_angle_alpha    90
_cell_angle_beta     90.28
_cell_angle_gamma    90

_space_group_name_H-M_alt    "P 1"
_space_group_IT_number       1

loop_
  _space_group_symop_operation_xyz
  'x, y, z'

loop_
  _atom_site_type_symbol
  _atom_site_label
  _atom_site_symmetry_multiplicity
  _atom_site_fract_x
  _atom_site_fract_y
  _atom_site_fract_z
  _atom_site_occupancy
  Al  Al1       1.0  0.72597  0.42425  0.27174  1.0000
  Al  Al2       1.0  0.27403  0.92425  0.22826  1.0000
  Al  Al3       1.0  0.27403  0.57575  0.72826  1.0000
  Al  Al4       1.0  0.72597  0.07575  0.77174  1.0000
  Na  Na1       1.0  0.22541  0.27665  0.00625  1.0000
  Na  Na2       1.0  0.77459  0.77665  0.49375  1.0000
  Na  Na3       1.0  0.77459  0.72335  0.99375  1.0000
  Na  Na4       1.0  0.22541  0.22335  0.50625  1.0000
  O   O1        1.0  0.53621  0.43923  0.19654  1.0000
  O   O2        1.0  0.46379  0.93923  0.30346  1.0000
  O   O3        1.0  0.46379  0.56077  0.80346  1.0000
  O   O4        1.0  0.53621  0.06077  0.69654  1.0000
  O   O5        1.0  0.33555  0.40546  0.09690  1.0000
  O   O6        1.0  0.66445  0.90546  0.40310  1.0000
  O   O7        1.0  0.66445  0.59454  0.90310  1.0000
  O   O8        1.0  0.33555  0.09454  0.59690  1.0000
  O   O9        1.0  0.63527  0.51553  0.35187  1.0000
  O   O10       1.0  0.36473  0.01553  0.14813  1.0000
  O   O11       1.0  0.36473  0.48447  0.64813  1.0000
  O   O12       1.0  0.63527  0.98447  0.85187  1.0000
  O   O13       1.0  0.62078  0.65820  0.40919  1.0000
  O   O14       1.0  0.37922  0.15820  0.09081  1.0000
  O   O15       1.0  0.37922  0.34180  0.59081  1.0000
  O   O16       1.0  0.62078  0.84180  0.90919  1.0000
  O   O17       1.0  0.90856  0.41562  0.35243  1.0000
  O   O18       1.0  0.09144  0.91562  0.14757  1.0000
  O   O19       1.0  0.09144  0.58438  0.64757  1.0000
  O   O20       1.0  0.90856  0.08438  0.85243  1.0000
  O   O21       1.0  0.11887  0.34763  0.42290  1.0000
  O   O22       1.0  0.88113  0.84763  0.07710  1.0000
  O   O23       1.0  0.88113  0.65237  0.57710  1.0000
  O   O24       1.0  0.11887  0.15237  0.92290  1.0000
  O   O25       1.0  0.80117  0.33031  0.18862  1.0000
  O   O26       1.0  0.19883  0.83031  0.31138  1.0000
  O   O27       1.0  0.19883  0.66969  0.81138  1.0000
  O   O28       1.0  0.80117  0.16969  0.68862  1.0000
  O   O29       1.0  0.97806  0.26274  0.09327  1.0000
  O   O30       1.0  0.02194  0.76274  0.40673  1.0000
  O   O31       1.0  0.02194  0.73726  0.90673  1.0000
  O   O32       1.0  0.97806  0.23726  0.59327  1.0000
  O   O33       1.0  0.63285  0.32833  0.34596  1.0000
  O   O34       1.0  0.36715  0.82833  0.15404  1.0000
  O   O35       1.0  0.36715  0.67167  0.65404  1.0000
  O   O36       1.0  0.63285  0.17167  0.84596  1.0000
  O   O37       1.0  0.47512  0.22367  0.41239  1.0000
  O   O38       1.0  0.52488  0.72367  0.08761  1.0000
  O   O39       1.0  0.52488  0.77633  0.58761  1.0000
  O   O40       1.0  0.47512  0.27633  0.91239  1.0000
  O   O41       1.0  0.84391  0.51334  0.20324  1.0000
  O   O42       1.0  0.15609  0.01334  0.29676  1.0000
  O   O43       1.0  0.15609  0.48666  0.79676  1.0000
  O   O44       1.0  0.84391  0.98666  0.70324  1.0000
  O   O45       1.0  0.91642  0.61752  0.09733  1.0000
  O   O46       1.0  0.08358  0.11752  0.40267  1.0000
  O   O47       1.0  0.08358  0.38248  0.90267  1.0000
  O   O48       1.0  0.91642  0.88248  0.59733  1.0000
  C   C1        1.0  0.46140  0.38596  0.14074  1.0000
  C   C2        1.0  0.53860  0.88596  0.35926  1.0000
  C   C3        1.0  0.53860  0.61404  0.85926  1.0000
  C   C4        1.0  0.46140  0.11404  0.64074  1.0000
  H   H1        1.0  0.50520  0.32650  0.13180  1.0000
  H   H2        1.0  0.49480  0.82650  0.36820  1.0000
  H   H3        1.0  0.49480  0.67350  0.86820  1.0000
  H   H4        1.0  0.50520  0.17350  0.63180  1.0000
  C   C5        1.0  0.69700  0.59192  0.37800  1.0000
  C   C6        1.0  0.30300  0.09192  0.12200  1.0000
  C   C7        1.0  0.30300  0.40808  0.62200  1.0000
  C   C8        1.0  0.69700  0.90808  0.87800  1.0000
  H   H5        1.0  0.81110  0.59830  0.37300  1.0000
  H   H6        1.0  0.18890  0.09830  0.12700  1.0000
  H   H7        1.0  0.18890  0.40170  0.62700  1.0000
  H   H8        1.0  0.81110  0.90170  0.87300  1.0000
  C   C9        1.0  0.99770  0.34644  0.37343  1.0000
  C   C10       1.0  0.00230  0.84644  0.12657  1.0000
  C   C11       1.0  0.00230  0.65356  0.62657  1.0000
  C   C12       1.0  0.99770  0.15356  0.87343  1.0000
  H   H9        1.0  0.96660  0.28890  0.34810  1.0000
  H   H10       1.0  0.03340  0.78890  0.15190  1.0000
  H   H11       1.0  0.03340  0.71110  0.65190  1.0000
  H   H12       1.0  0.96660  0.21110  0.84810  1.0000
  C   C13       1.0  0.93760  0.32538  0.14647  1.0000
  C   C14       1.0  0.06240  0.82538  0.35353  1.0000
  C   C15       1.0  0.06240  0.67462  0.85353  1.0000
  C   C16       1.0  0.93760  0.17462  0.64647  1.0000
  H   H13       1.0  0.01310  0.37340  0.15690  1.0000
  H   H14       1.0  0.98690  0.87340  0.34310  1.0000
  H   H15       1.0  0.98690  0.62660  0.84310  1.0000
  H   H16       1.0  0.01310  0.12660  0.65690  1.0000
  C   C17       1.0  0.49570  0.29333  0.36443  1.0000
  C   C18       1.0  0.50430  0.79333  0.13557  1.0000
  C   C19       1.0  0.50430  0.70667  0.63557  1.0000
  C   C20       1.0  0.49570  0.20667  0.86443  1.0000
  H   H17       1.0  0.40240  0.32270  0.33970  1.0000
  H   H18       1.0  0.59760  0.82270  0.16030  1.0000
  H   H19       1.0  0.59760  0.67730  0.66030  1.0000
  H   H20       1.0  0.40240  0.17730  0.83970  1.0000
  C   C21       1.0  0.81600  0.56596  0.13530  1.0000
  C   C22       1.0  0.18400  0.06596  0.36470  1.0000
  C   C23       1.0  0.18400  0.43404  0.86470  1.0000
  C   C24       1.0  0.81600  0.93404  0.63530  1.0000
  H   H21       1.0  0.70900  0.56640  0.11080  1.0000
  H   H22       1.0  0.29100  0.06640  0.38920  1.0000
  H   H23       1.0  0.29100  0.43360  0.88920  1.0000
  H   H24       1.0  0.70900  0.93360  0.61080  1.0000
