data_image0
_chemical_formula_structural       AlNaO12C2H2C2H2C2H2
_chemical_formula_sum              "Al1 Na1 O12 C6 H6"
_cell_length_a       6.5525
_cell_length_b       7.9369
_cell_length_c       8.0996
_cell_angle_alpha    95
_cell_angle_beta     91.652
_cell_angle_gamma    111.048

_space_group_name_H-M_alt    "P 1"
_space_group_IT_number       1

loop_
  _space_group_symop_operation_xyz
  'x, y, z'

loop_
  _atom_site_type_symbol
  _atom_site_label
  _atom_site_symmetry_multiplicity
  _atom_site_fract_x
  _atom_site_fract_y
  _atom_site_fract_z
  _atom_site_occupancy
  Al  Al1       1.0  0.50000  0.50000  0.50000  1.0000
  Na  Na1       1.0  0.00000  0.00000  0.50000  1.0000
  O   O1        1.0  0.24850  0.29320  0.41952  1.0000
  O   O2        1.0  0.75150  0.70680  0.58048  1.0000
  O   O3        1.0  0.98960  0.12360  0.23090  1.0000
  O   O4        1.0  0.01040  0.87640  0.76910  1.0000
  O   O5        1.0  0.61270  0.34330  0.60380  1.0000
  O   O6        1.0  0.38730  0.65670  0.39620  1.0000
  O   O7        1.0  0.76890  0.14110  0.62270  1.0000
  O   O8        1.0  0.23110  0.85890  0.37730  1.0000
  O   O9        1.0  0.63530  0.47060  0.30305  1.0000
  O   O10       1.0  0.36470  0.52940  0.69695  1.0000
  O   O11       1.0  0.80740  0.56160  0.07680  1.0000
  O   O12       1.0  0.19260  0.43840  0.92320  1.0000
  C   C1        1.0  0.14830  0.26210  0.27780  1.0000
  C   C2        1.0  0.85170  0.73790  0.72220  1.0000
  H   H1        1.0  0.19790  0.34950  0.20410  1.0000
  H   H2        1.0  0.80210  0.65050  0.79590  1.0000
  C   C3        1.0  0.69720  0.23670  0.54540  1.0000
  C   C4        1.0  0.30280  0.76330  0.45460  1.0000
  H   H3        1.0  0.70780  0.22800  0.43090  1.0000
  H   H4        1.0  0.29220  0.77200  0.56910  1.0000
  C   C5        1.0  0.73230  0.58930  0.20830  1.0000
  C   C6        1.0  0.26770  0.41070  0.79170  1.0000
  H   H5        1.0  0.74780  0.70850  0.24190  1.0000
  H   H6        1.0  0.25220  0.29150  0.75810  1.0000
