data_image0
_chemical_formula_structural       AlNaO12C2H2C2H2C2H2
_chemical_formula_sum              "Al1 Na1 O12 C6 H6"
_cell_length_a       6.4837
_cell_length_b       7.9096
_cell_length_c       8.0713
_cell_angle_alpha    95
_cell_angle_beta     91.416
_cell_angle_gamma    110.956

_space_group_name_H-M_alt    "P 1"
_space_group_IT_number       1

loop_
  _space_group_symop_operation_xyz
  'x, y, z'

loop_
  _atom_site_type_symbol
  _atom_site_label
  _atom_site_symmetry_multiplicity
  _atom_site_fract_x
  _atom_site_fract_y
  _atom_site_fract_z
  _atom_site_occupancy
  Al  Al1       1.0  0.50000  0.50000  0.50000  1.0000
  Na  Na1       1.0  0.00000  0.00000  0.50000  1.0000
  O   O1        1.0  0.24880  0.29097  0.42199  1.0000
  O   O2        1.0  0.75120  0.70903  0.57801  1.0000
  O   O3        1.0  0.98570  0.12304  0.23197  1.0000
  O   O4        1.0  0.01430  0.87696  0.76803  1.0000
  O   O5        1.0  0.61710  0.34690  0.60726  1.0000
  O   O6        1.0  0.38290  0.65310  0.39274  1.0000
  O   O7        1.0  0.76730  0.13750  0.62586  1.0000
  O   O8        1.0  0.23270  0.86250  0.37414  1.0000
  O   O9        1.0  0.63800  0.46987  0.30273  1.0000
  O   O10       1.0  0.36200  0.53013  0.69727  1.0000
  O   O11       1.0  0.81060  0.56702  0.07503  1.0000
  O   O12       1.0  0.18940  0.43298  0.92497  1.0000
  C   C1        1.0  0.14840  0.26100  0.27780  1.0000
  C   C2        1.0  0.85160  0.73900  0.72220  1.0000
  H   H1        1.0  0.20200  0.34980  0.20170  1.0000
  H   H2        1.0  0.79800  0.65020  0.79830  1.0000
  C   C3        1.0  0.69420  0.23210  0.54530  1.0000
  C   C4        1.0  0.30580  0.76790  0.45470  1.0000
  H   H3        1.0  0.69640  0.21680  0.42740  1.0000
  H   H4        1.0  0.30360  0.78320  0.57260  1.0000
  C   C5        1.0  0.73540  0.59320  0.20960  1.0000
  C   C6        1.0  0.26460  0.40680  0.79040  1.0000
  H   H5        1.0  0.75110  0.71470  0.24680  1.0000
  H   H6        1.0  0.24890  0.28530  0.75320  1.0000
