data_image0
_chemical_formula_structural       AlNaO12C2H2C2H2C2H2
_chemical_formula_sum              "Al1 Na1 O12 C6 H6"
_cell_length_a       6.5446
_cell_length_b       7.9289
_cell_length_c       8.0974
_cell_angle_alpha    95.02
_cell_angle_beta     91.567
_cell_angle_gamma    111.018

_space_group_name_H-M_alt    "P 1"
_space_group_IT_number       1

loop_
  _space_group_symop_operation_xyz
  'x, y, z'

loop_
  _atom_site_type_symbol
  _atom_site_label
  _atom_site_symmetry_multiplicity
  _atom_site_fract_x
  _atom_site_fract_y
  _atom_site_fract_z
  _atom_site_occupancy
  Al  Al1       1.0  0.50000  0.50000  0.50000  1.0000
  Na  Na1       1.0  0.00000  0.00000  0.50000  1.0000
  O   O1        1.0  0.24980  0.29280  0.42011  1.0000
  O   O2        1.0  0.75020  0.70720  0.57989  1.0000
  O   O3        1.0  0.98920  0.12370  0.23080  1.0000
  O   O4        1.0  0.01080  0.87630  0.76920  1.0000
  O   O5        1.0  0.61380  0.34470  0.60482  1.0000
  O   O6        1.0  0.38620  0.65530  0.39518  1.0000
  O   O7        1.0  0.76800  0.14020  0.62440  1.0000
  O   O8        1.0  0.23200  0.85980  0.37560  1.0000
  O   O9        1.0  0.63650  0.47050  0.30327  1.0000
  O   O10       1.0  0.36350  0.52950  0.69673  1.0000
  O   O11       1.0  0.80870  0.56390  0.07690  1.0000
  O   O12       1.0  0.19130  0.43610  0.92310  1.0000
  C   C1        1.0  0.14850  0.26260  0.27730  1.0000
  C   C2        1.0  0.85150  0.73740  0.72270  1.0000
  H   H1        1.0  0.19760  0.35050  0.20390  1.0000
  H   H2        1.0  0.80240  0.64950  0.79610  1.0000
  C   C3        1.0  0.69700  0.23580  0.54550  1.0000
  C   C4        1.0  0.30300  0.76420  0.45450  1.0000
  H   H3        1.0  0.70640  0.22570  0.43090  1.0000
  H   H4        1.0  0.29360  0.77430  0.56910  1.0000
  C   C5        1.0  0.73380  0.59150  0.20920  1.0000
  C   C6        1.0  0.26620  0.40850  0.79080  1.0000
  H   H5        1.0  0.74940  0.71060  0.24390  1.0000
  H   H6        1.0  0.25060  0.28940  0.75610  1.0000
