data_image0
_chemical_formula_structural       La8Cl4O48C12H4C4H4C16H4C4H4C4H4C4H4C16H4C4H4C16H4C4H4C4H4C4H4C16H4C4H4C16H4C4H4C4H4C4H4C4
_chemical_formula_sum              "La8 Cl4 O48 C144 H72"
_cell_length_a       18.0824
_cell_length_b       14.7558
_cell_length_c       16.3179
_cell_angle_alpha    90
_cell_angle_beta     96.2061
_cell_angle_gamma    90

_space_group_name_H-M_alt    "P 1"
_space_group_IT_number       1

loop_
  _space_group_symop_operation_xyz
  'x, y, z'

loop_
  _atom_site_type_symbol
  _atom_site_label
  _atom_site_symmetry_multiplicity
  _atom_site_fract_x
  _atom_site_fract_y
  _atom_site_fract_z
  _atom_site_occupancy
  La  La1       1.0  0.37884  0.02532  0.99465  1.0000
  La  La2       1.0  0.62116  0.52532  0.50535  1.0000
  La  La3       1.0  0.62116  0.97468  0.00535  1.0000
  La  La4       1.0  0.37884  0.47468  0.49465  1.0000
  La  La5       1.0  0.11503  0.01414  0.99926  1.0000
  La  La6       1.0  0.88497  0.51414  0.50074  1.0000
  La  La7       1.0  0.88497  0.98586  0.00074  1.0000
  La  La8       1.0  0.11503  0.48586  0.49926  1.0000
  Cl  Cl1       1.0  0.25217  0.90996  0.02433  1.0000
  Cl  Cl2       1.0  0.74783  0.40996  0.47567  1.0000
  Cl  Cl3       1.0  0.74783  0.09004  0.97567  1.0000
  Cl  Cl4       1.0  0.25217  0.59004  0.52433  1.0000
  O   O1        1.0  0.44780  0.13339  0.91914  1.0000
  O   O2        1.0  0.55220  0.63339  0.58086  1.0000
  O   O3        1.0  0.55220  0.86661  0.08086  1.0000
  O   O4        1.0  0.44780  0.36661  0.41914  1.0000
  O   O5        1.0  0.57030  0.11322  0.93739  1.0000
  O   O6        1.0  0.42970  0.61322  0.56261  1.0000
  O   O7        1.0  0.42970  0.88678  0.06261  1.0000
  O   O8        1.0  0.57030  0.38678  0.43739  1.0000
  O   O9        1.0  0.31770  0.13733  0.07618  1.0000
  O   O10       1.0  0.68230  0.63733  0.42382  1.0000
  O   O11       1.0  0.68230  0.86267  0.92382  1.0000
  O   O12       1.0  0.31770  0.36267  0.57618  1.0000
  O   O13       1.0  0.48169  0.43149  0.59679  1.0000
  O   O14       1.0  0.51831  0.93149  0.90321  1.0000
  O   O15       1.0  0.51831  0.56851  0.40321  1.0000
  O   O16       1.0  0.48169  0.06851  0.09679  1.0000
  O   O17       1.0  0.19758  0.14042  0.03068  1.0000
  O   O18       1.0  0.80242  0.64042  0.46932  1.0000
  O   O19       1.0  0.80242  0.85958  0.96932  1.0000
  O   O20       1.0  0.19758  0.35958  0.53068  1.0000
  O   O21       1.0  0.60354  0.42808  0.62302  1.0000
  O   O22       1.0  0.39646  0.92808  0.87698  1.0000
  O   O23       1.0  0.39646  0.57192  0.37698  1.0000
  O   O24       1.0  0.60354  0.07192  0.12302  1.0000
  O   O25       1.0  0.28163  0.43156  0.38925  1.0000
  O   O26       1.0  0.71837  0.93156  0.11075  1.0000
  O   O27       1.0  0.71837  0.56844  0.61075  1.0000
  O   O28       1.0  0.28163  0.06844  0.88925  1.0000
  O   O29       1.0  0.15934  0.44684  0.36510  1.0000
  O   O30       1.0  0.84066  0.94684  0.13490  1.0000
  O   O31       1.0  0.84066  0.55316  0.63490  1.0000
  O   O32       1.0  0.15934  0.05316  0.86510  1.0000
  O   O33       1.0  0.06178  0.10471  0.10817  1.0000
  O   O34       1.0  0.93822  0.60471  0.39183  1.0000
  O   O35       1.0  0.93822  0.89529  0.89183  1.0000
  O   O36       1.0  0.06178  0.39529  0.60817  1.0000
  O   O37       1.0  0.93756  0.10751  0.08897  1.0000
  O   O38       1.0  0.06244  0.60751  0.41103  1.0000
  O   O39       1.0  0.06244  0.89249  0.91103  1.0000
  O   O40       1.0  0.93756  0.39249  0.58897  1.0000
  O   O41       1.0  0.00262  0.41673  0.43167  1.0000
  O   O42       1.0  0.99738  0.91673  0.06833  1.0000
  O   O43       1.0  0.99738  0.58327  0.56833  1.0000
  O   O44       1.0  0.00262  0.08327  0.93167  1.0000
  O   O45       1.0  0.88640  0.41230  0.37657  1.0000
  O   O46       1.0  0.11360  0.91230  0.12343  1.0000
  O   O47       1.0  0.11360  0.58770  0.62343  1.0000
  O   O48       1.0  0.88640  0.08770  0.87657  1.0000
  C   C1        1.0  0.51267  0.15200  0.90540  1.0000
  C   C2        1.0  0.48733  0.65200  0.59460  1.0000
  C   C3        1.0  0.48733  0.84800  0.09460  1.0000
  C   C4        1.0  0.51267  0.34800  0.40540  1.0000
  C   C5        1.0  0.52136  0.22440  0.84170  1.0000
  C   C6        1.0  0.47864  0.72440  0.65830  1.0000
  C   C7        1.0  0.47864  0.77560  0.15830  1.0000
  C   C8        1.0  0.52136  0.27560  0.34170  1.0000
  C   C9        1.0  0.47261  0.22320  0.77180  1.0000
  C   C10       1.0  0.52739  0.72320  0.72820  1.0000
  C   C11       1.0  0.52739  0.77680  0.22820  1.0000
  C   C12       1.0  0.47261  0.27680  0.27180  1.0000
  H   H1        1.0  0.43500  0.17990  0.76620  1.0000
  H   H2        1.0  0.56500  0.67990  0.73380  1.0000
  H   H3        1.0  0.56500  0.82010  0.23380  1.0000
  H   H4        1.0  0.43500  0.32010  0.26620  1.0000
  C   C13       1.0  0.47814  0.28600  0.70820  1.0000
  C   C14       1.0  0.52186  0.78600  0.79180  1.0000
  C   C15       1.0  0.52186  0.71400  0.29180  1.0000
  C   C16       1.0  0.47814  0.21400  0.20820  1.0000
  H   H5        1.0  0.44380  0.28430  0.66140  1.0000
  H   H6        1.0  0.55620  0.78430  0.83860  1.0000
  H   H7        1.0  0.55620  0.71570  0.33860  1.0000
  H   H8        1.0  0.44380  0.21570  0.16140  1.0000
  C   C17       1.0  0.53323  0.34960  0.71390  1.0000
  C   C18       1.0  0.46677  0.84960  0.78610  1.0000
  C   C19       1.0  0.46677  0.65040  0.28610  1.0000
  C   C20       1.0  0.53323  0.15040  0.21390  1.0000
  C   C21       1.0  0.58374  0.35630  0.78760  1.0000
  C   C22       1.0  0.41626  0.85630  0.71240  1.0000
  C   C23       1.0  0.41626  0.64370  0.21240  1.0000
  C   C24       1.0  0.58374  0.14370  0.28760  1.0000
  C   C25       1.0  0.57830  0.29180  0.85210  1.0000
  C   C26       1.0  0.42170  0.79180  0.64790  1.0000
  C   C27       1.0  0.42170  0.70820  0.14790  1.0000
  C   C28       1.0  0.57830  0.20820  0.35210  1.0000
  C   C29       1.0  0.62894  0.29860  0.92420  1.0000
  C   C30       1.0  0.37106  0.79860  0.57580  1.0000
  C   C31       1.0  0.37106  0.70140  0.07580  1.0000
  C   C32       1.0  0.62894  0.20140  0.42420  1.0000
  H   H9        1.0  0.62710  0.25600  0.96590  1.0000
  H   H10       1.0  0.37290  0.75600  0.53410  1.0000
  H   H11       1.0  0.37290  0.74400  0.03410  1.0000
  H   H12       1.0  0.62710  0.24400  0.46590  1.0000
  C   C33       1.0  0.68010  0.36590  0.93360  1.0000
  C   C34       1.0  0.31990  0.86590  0.56640  1.0000
  C   C35       1.0  0.31990  0.63410  0.06640  1.0000
  C   C36       1.0  0.68010  0.13410  0.43360  1.0000
  H   H13       1.0  0.71290  0.36900  0.98150  1.0000
  H   H14       1.0  0.28710  0.86900  0.51850  1.0000
  H   H15       1.0  0.28710  0.63100  0.01850  1.0000
  H   H16       1.0  0.71290  0.13100  0.48150  1.0000
  C   C37       1.0  0.68390  0.43060  0.87180  1.0000
  C   C38       1.0  0.31610  0.93060  0.62820  1.0000
  C   C39       1.0  0.31610  0.56940  0.12820  1.0000
  C   C40       1.0  0.68390  0.06940  0.37180  1.0000
  H   H17       1.0  0.71860  0.47720  0.87950  1.0000
  H   H18       1.0  0.28140  0.97720  0.62050  1.0000
  H   H19       1.0  0.28140  0.52280  0.12050  1.0000
  H   H20       1.0  0.71860  0.02280  0.37950  1.0000
  C   C41       1.0  0.63765  0.42620  0.80090  1.0000
  C   C42       1.0  0.36235  0.92620  0.69910  1.0000
  C   C43       1.0  0.36235  0.57380  0.19910  1.0000
  C   C44       1.0  0.63765  0.07380  0.30090  1.0000
  H   H21       1.0  0.64130  0.46970  0.76020  1.0000
  H   H22       1.0  0.35870  0.96970  0.73980  1.0000
  H   H23       1.0  0.35870  0.53030  0.23980  1.0000
  H   H24       1.0  0.64130  0.03030  0.26020  1.0000
  C   C45       1.0  0.53970  0.40800  0.64000  1.0000
  C   C46       1.0  0.46030  0.90800  0.86000  1.0000
  C   C47       1.0  0.46030  0.59200  0.36000  1.0000
  C   C48       1.0  0.53970  0.09200  0.14000  1.0000
  C   C49       1.0  0.25316  0.16810  0.07720  1.0000
  C   C50       1.0  0.74684  0.66810  0.42280  1.0000
  C   C51       1.0  0.74684  0.83190  0.92280  1.0000
  C   C52       1.0  0.25316  0.33190  0.57720  1.0000
  C   C53       1.0  0.24180  0.23950  0.13980  1.0000
  C   C54       1.0  0.75820  0.73950  0.36020  1.0000
  C   C55       1.0  0.75820  0.76050  0.86020  1.0000
  C   C56       1.0  0.24180  0.26050  0.63980  1.0000
  C   C57       1.0  0.28540  0.23390  0.21360  1.0000
  C   C58       1.0  0.71460  0.73390  0.28640  1.0000
  C   C59       1.0  0.71460  0.76610  0.78640  1.0000
  C   C60       1.0  0.28540  0.26610  0.71360  1.0000
  H   H25       1.0  0.32170  0.18910  0.22040  1.0000
  H   H26       1.0  0.67830  0.68910  0.27960  1.0000
  H   H27       1.0  0.67830  0.81090  0.77960  1.0000
  H   H28       1.0  0.32170  0.31090  0.72040  1.0000
  C   C61       1.0  0.27769  0.29250  0.27870  1.0000
  C   C62       1.0  0.72231  0.79250  0.22130  1.0000
  C   C63       1.0  0.72231  0.70750  0.72130  1.0000
  C   C64       1.0  0.27769  0.20750  0.77870  1.0000
  H   H29       1.0  0.30930  0.28690  0.32730  1.0000
  H   H30       1.0  0.69070  0.78690  0.17270  1.0000
  H   H31       1.0  0.69070  0.71310  0.67270  1.0000
  H   H32       1.0  0.30930  0.21310  0.82730  1.0000
  C   C65       1.0  0.22391  0.35870  0.27220  1.0000
  C   C66       1.0  0.77609  0.85870  0.22780  1.0000
  C   C67       1.0  0.77609  0.64130  0.72780  1.0000
  C   C68       1.0  0.22391  0.14130  0.77220  1.0000
  C   C69       1.0  0.17720  0.36899  0.19663  1.0000
  C   C70       1.0  0.82280  0.86899  0.30337  1.0000
  C   C71       1.0  0.82280  0.63101  0.80337  1.0000
  C   C72       1.0  0.17720  0.13101  0.69663  1.0000
  C   C73       1.0  0.18696  0.30990  0.12820  1.0000
  C   C74       1.0  0.81304  0.80990  0.37180  1.0000
  C   C75       1.0  0.81304  0.69010  0.87180  1.0000
  C   C76       1.0  0.18696  0.19010  0.62820  1.0000
  C   C77       1.0  0.14380  0.32550  0.05270  1.0000
  C   C78       1.0  0.85620  0.82550  0.44730  1.0000
  C   C79       1.0  0.85620  0.67450  0.94730  1.0000
  C   C80       1.0  0.14380  0.17450  0.55270  1.0000
  H   H33       1.0  0.15030  0.28840  0.00790  1.0000
  H   H34       1.0  0.84970  0.78840  0.49210  1.0000
  H   H35       1.0  0.84970  0.71160  0.99210  1.0000
  H   H36       1.0  0.15030  0.21160  0.50790  1.0000
  C   C81       1.0  0.09260  0.39380  0.04360  1.0000
  C   C82       1.0  0.90740  0.89380  0.45640  1.0000
  C   C83       1.0  0.90740  0.60620  0.95640  1.0000
  C   C84       1.0  0.09260  0.10620  0.54360  1.0000
  H   H37       1.0  0.06500  0.40310  0.99280  1.0000
  H   H38       1.0  0.93500  0.90310  0.50720  1.0000
  H   H39       1.0  0.93500  0.59690  0.00720  1.0000
  H   H40       1.0  0.06500  0.09690  0.49280  1.0000
  C   C85       1.0  0.08170  0.44890  0.10950  1.0000
  C   C86       1.0  0.91830  0.94890  0.39050  1.0000
  C   C87       1.0  0.91830  0.55110  0.89050  1.0000
  C   C88       1.0  0.08170  0.05110  0.60950  1.0000
  H   H41       1.0  0.04610  0.49450  0.10270  1.0000
  H   H42       1.0  0.95390  0.99450  0.39730  1.0000
  H   H43       1.0  0.95390  0.50550  0.89730  1.0000
  H   H44       1.0  0.04610  0.00550  0.60270  1.0000
  C   C89       1.0  0.12211  0.43800  0.18450  1.0000
  C   C90       1.0  0.87789  0.93800  0.31550  1.0000
  C   C91       1.0  0.87789  0.56200  0.81550  1.0000
  C   C92       1.0  0.12211  0.06200  0.68450  1.0000
  H   H45       1.0  0.11350  0.47590  0.22800  1.0000
  H   H46       1.0  0.88650  0.97590  0.27200  1.0000
  H   H47       1.0  0.88650  0.52410  0.77200  1.0000
  H   H48       1.0  0.11350  0.02410  0.72800  1.0000
  C   C93       1.0  0.22094  0.41710  0.34731  1.0000
  C   C94       1.0  0.77906  0.91710  0.15269  1.0000
  C   C95       1.0  0.77906  0.58290  0.65269  1.0000
  C   C96       1.0  0.22094  0.08290  0.84731  1.0000
  C   C97       1.0  0.00000  0.13650  0.12020  1.0000
  C   C98       1.0  0.00000  0.63650  0.37980  1.0000
  C   C99       1.0  0.00000  0.86350  0.87980  1.0000
  C   C100      1.0  0.00000  0.36350  0.62020  1.0000
  C   C101      1.0  0.99759  0.21430  0.17920  1.0000
  C   C102      1.0  0.00241  0.71430  0.32080  1.0000
  C   C103      1.0  0.00241  0.78570  0.82080  1.0000
  C   C104      1.0  0.99759  0.28570  0.67920  1.0000
  C   C105      1.0  0.03570  0.20770  0.25600  1.0000
  C   C106      1.0  0.96430  0.70770  0.24400  1.0000
  C   C107      1.0  0.96430  0.79230  0.74400  1.0000
  C   C108      1.0  0.03570  0.29230  0.75600  1.0000
  H   H49       1.0  0.06940  0.16060  0.26740  1.0000
  H   H50       1.0  0.93060  0.66060  0.23260  1.0000
  H   H51       1.0  0.93060  0.83940  0.73260  1.0000
  H   H52       1.0  0.06940  0.33940  0.76740  1.0000
  C   C109      1.0  0.02480  0.27070  0.31810  1.0000
  C   C110      1.0  0.97520  0.77070  0.18190  1.0000
  C   C111      1.0  0.97520  0.72930  0.68190  1.0000
  C   C112      1.0  0.02480  0.22930  0.81810  1.0000
  H   H53       1.0  0.05180  0.26530  0.36970  1.0000
  H   H54       1.0  0.94820  0.76530  0.13030  1.0000
  H   H55       1.0  0.94820  0.73470  0.63030  1.0000
  H   H56       1.0  0.05180  0.23470  0.86970  1.0000
  C   C113      1.0  0.97503  0.34000  0.30330  1.0000
  C   C114      1.0  0.02497  0.84000  0.19670  1.0000
  C   C115      1.0  0.02497  0.66000  0.69670  1.0000
  C   C116      1.0  0.97503  0.16000  0.80330  1.0000
  C   C117      1.0  0.93932  0.35560  0.22120  1.0000
  C   C118      1.0  0.06068  0.85560  0.27880  1.0000
  C   C119      1.0  0.06068  0.64440  0.77880  1.0000
  C   C120      1.0  0.93932  0.14440  0.72120  1.0000
  C   C121      1.0  0.95045  0.29100  0.15910  1.0000
  C   C122      1.0  0.04955  0.79100  0.34090  1.0000
  C   C123      1.0  0.04955  0.70900  0.84090  1.0000
  C   C124      1.0  0.95045  0.20900  0.65910  1.0000
  C   C125      1.0  0.91700  0.30690  0.07760  1.0000
  C   C126      1.0  0.08300  0.80690  0.42240  1.0000
  C   C127      1.0  0.08300  0.69310  0.92240  1.0000
  C   C128      1.0  0.91700  0.19310  0.57760  1.0000
  H   H57       1.0  0.92250  0.26490  0.03620  1.0000
  H   H58       1.0  0.07750  0.76490  0.46380  1.0000
  H   H59       1.0  0.07750  0.73510  0.96380  1.0000
  H   H60       1.0  0.92250  0.23510  0.53620  1.0000
  C   C129      1.0  0.87710  0.38330  0.06040  1.0000
  C   C130      1.0  0.12290  0.88330  0.43960  1.0000
  C   C131      1.0  0.12290  0.61670  0.93960  1.0000
  C   C132      1.0  0.87710  0.11670  0.56040  1.0000
  H   H61       1.0  0.85600  0.39350  0.00670  1.0000
  H   H62       1.0  0.14400  0.89350  0.49330  1.0000
  H   H63       1.0  0.14400  0.60650  0.99330  1.0000
  H   H64       1.0  0.85600  0.10650  0.50670  1.0000
  C   C133      1.0  0.86700  0.44650  0.12030  1.0000
  C   C134      1.0  0.13300  0.94650  0.37970  1.0000
  C   C135      1.0  0.13300  0.55350  0.87970  1.0000
  C   C136      1.0  0.86700  0.05350  0.62030  1.0000
  H   H65       1.0  0.84010  0.49890  0.10610  1.0000
  H   H66       1.0  0.15990  0.99890  0.39390  1.0000
  H   H67       1.0  0.15990  0.50110  0.89390  1.0000
  H   H68       1.0  0.84010  0.00110  0.60610  1.0000
  C   C137      1.0  0.89580  0.43330  0.20010  1.0000
  C   C138      1.0  0.10420  0.93330  0.29990  1.0000
  C   C139      1.0  0.10420  0.56670  0.79990  1.0000
  C   C140      1.0  0.89580  0.06670  0.70010  1.0000
  H   H69       1.0  0.88680  0.47530  0.24040  1.0000
  H   H70       1.0  0.11320  0.97530  0.25960  1.0000
  H   H71       1.0  0.11320  0.52470  0.75960  1.0000
  H   H72       1.0  0.88680  0.02470  0.74040  1.0000
  C   C141      1.0  0.95381  0.39390  0.37430  1.0000
  C   C142      1.0  0.04619  0.89390  0.12570  1.0000
  C   C143      1.0  0.04619  0.60610  0.62570  1.0000
  C   C144      1.0  0.95381  0.10610  0.87430  1.0000
