data_image0
_chemical_formula_structural       Pr8Cl4O48C12H4C4H4C16H4C4H4C4H4C4H4C16H4C4H4C16H4C4H4C4H4C4H4C16H4C4H4C16H4C4H4C4H4C4H4C4
_chemical_formula_sum              "Pr8 Cl4 O48 C144 H72"
_cell_length_a       17.961
_cell_length_b       14.811
_cell_length_c       16.1045
_cell_angle_alpha    90
_cell_angle_beta     95.7691
_cell_angle_gamma    90

_space_group_name_H-M_alt    "P 1"
_space_group_IT_number       1

loop_
  _space_group_symop_operation_xyz
  'x, y, z'

loop_
  _atom_site_type_symbol
  _atom_site_label
  _atom_site_symmetry_multiplicity
  _atom_site_fract_x
  _atom_site_fract_y
  _atom_site_fract_z
  _atom_site_occupancy
  Pr  Pr1       1.0  0.37790  0.02501  0.99456  1.0000
  Pr  Pr2       1.0  0.62210  0.52502  0.50544  1.0000
  Pr  Pr3       1.0  0.62210  0.97498  0.00544  1.0000
  Pr  Pr4       1.0  0.37790  0.47498  0.49456  1.0000
  Pr  Pr5       1.0  0.11506  0.01290  0.99890  1.0000
  Pr  Pr6       1.0  0.88494  0.51290  0.50110  1.0000
  Pr  Pr7       1.0  0.88494  0.98710  0.00110  1.0000
  Pr  Pr8       1.0  0.11506  0.48710  0.49890  1.0000
  Cl  Cl1       1.0  0.25169  0.91231  0.02308  1.0000
  Cl  Cl2       1.0  0.74831  0.41231  0.47692  1.0000
  Cl  Cl3       1.0  0.74831  0.08769  0.97692  1.0000
  Cl  Cl4       1.0  0.25169  0.58769  0.52308  1.0000
  O   O1        1.0  0.44857  0.13084  0.92207  1.0000
  O   O2        1.0  0.55143  0.63084  0.57793  1.0000
  O   O3        1.0  0.55143  0.86916  0.07793  1.0000
  O   O4        1.0  0.44857  0.36916  0.42207  1.0000
  O   O5        1.0  0.57177  0.11176  0.93955  1.0000
  O   O6        1.0  0.42823  0.61176  0.56045  1.0000
  O   O7        1.0  0.42823  0.88824  0.06045  1.0000
  O   O8        1.0  0.57177  0.38824  0.43955  1.0000
  O   O9        1.0  0.31584  0.13498  0.07448  1.0000
  O   O10       1.0  0.68416  0.63498  0.42552  1.0000
  O   O11       1.0  0.68416  0.86502  0.92552  1.0000
  O   O12       1.0  0.31584  0.36502  0.57448  1.0000
  O   O13       1.0  0.47458  0.43213  0.60033  1.0000
  O   O14       1.0  0.52542  0.93213  0.89967  1.0000
  O   O15       1.0  0.52542  0.56787  0.39967  1.0000
  O   O16       1.0  0.47458  0.06787  0.10033  1.0000
  O   O17       1.0  0.19477  0.13819  0.02944  1.0000
  O   O18       1.0  0.80523  0.63819  0.47056  1.0000
  O   O19       1.0  0.80523  0.86181  0.97056  1.0000
  O   O20       1.0  0.19477  0.36181  0.52944  1.0000
  O   O21       1.0  0.59832  0.43240  0.62224  1.0000
  O   O22       1.0  0.40168  0.93240  0.87776  1.0000
  O   O23       1.0  0.40168  0.56760  0.37776  1.0000
  O   O24       1.0  0.59832  0.06760  0.12224  1.0000
  O   O25       1.0  0.28393  0.43167  0.38878  1.0000
  O   O26       1.0  0.71607  0.93167  0.11122  1.0000
  O   O27       1.0  0.71607  0.56833  0.61122  1.0000
  O   O28       1.0  0.28393  0.06833  0.88878  1.0000
  O   O29       1.0  0.16061  0.44961  0.36610  1.0000
  O   O30       1.0  0.83939  0.94961  0.13390  1.0000
  O   O31       1.0  0.83939  0.55039  0.63390  1.0000
  O   O32       1.0  0.16061  0.05039  0.86610  1.0000
  O   O33       1.0  0.06242  0.09859  0.10964  1.0000
  O   O34       1.0  0.93758  0.59859  0.39036  1.0000
  O   O35       1.0  0.93758  0.90141  0.89036  1.0000
  O   O36       1.0  0.06242  0.40141  0.60964  1.0000
  O   O37       1.0  0.93749  0.10510  0.08921  1.0000
  O   O38       1.0  0.06251  0.60510  0.41079  1.0000
  O   O39       1.0  0.06251  0.89490  0.91079  1.0000
  O   O40       1.0  0.93749  0.39490  0.58921  1.0000
  O   O41       1.0  0.00583  0.41581  0.43343  1.0000
  O   O42       1.0  0.99417  0.91581  0.06657  1.0000
  O   O43       1.0  0.99417  0.58419  0.56657  1.0000
  O   O44       1.0  0.00583  0.08419  0.93343  1.0000
  O   O45       1.0  0.88809  0.40960  0.38053  1.0000
  O   O46       1.0  0.11191  0.90960  0.11947  1.0000
  O   O47       1.0  0.11191  0.59040  0.61947  1.0000
  O   O48       1.0  0.88809  0.09040  0.88053  1.0000
  C   C1        1.0  0.51350  0.15000  0.90790  1.0000
  C   C2        1.0  0.48650  0.65000  0.59210  1.0000
  C   C3        1.0  0.48650  0.85000  0.09210  1.0000
  C   C4        1.0  0.51350  0.35000  0.40790  1.0000
  C   C5        1.0  0.52137  0.22270  0.84330  1.0000
  C   C6        1.0  0.47863  0.72270  0.65670  1.0000
  C   C7        1.0  0.47863  0.77730  0.15670  1.0000
  C   C8        1.0  0.52137  0.27730  0.34330  1.0000
  C   C9        1.0  0.47150  0.22200  0.77360  1.0000
  C   C10       1.0  0.52850  0.72200  0.72640  1.0000
  C   C11       1.0  0.52850  0.77800  0.22640  1.0000
  C   C12       1.0  0.47150  0.27800  0.27360  1.0000
  H   H1        1.0  0.43380  0.17870  0.76820  1.0000
  H   H2        1.0  0.56620  0.67870  0.73180  1.0000
  H   H3        1.0  0.56620  0.82130  0.23180  1.0000
  H   H4        1.0  0.43380  0.32130  0.26820  1.0000
  C   C13       1.0  0.47630  0.28570  0.70990  1.0000
  C   C14       1.0  0.52370  0.78570  0.79010  1.0000
  C   C15       1.0  0.52370  0.71430  0.29010  1.0000
  C   C16       1.0  0.47630  0.21430  0.20990  1.0000
  H   H5        1.0  0.44160  0.28390  0.66300  1.0000
  H   H6        1.0  0.55840  0.78390  0.83700  1.0000
  H   H7        1.0  0.55840  0.71610  0.33700  1.0000
  H   H8        1.0  0.44160  0.21610  0.16300  1.0000
  C   C17       1.0  0.53073  0.35020  0.71520  1.0000
  C   C18       1.0  0.46927  0.85020  0.78480  1.0000
  C   C19       1.0  0.46927  0.64980  0.28480  1.0000
  C   C20       1.0  0.53073  0.14980  0.21520  1.0000
  C   C21       1.0  0.58239  0.35600  0.78850  1.0000
  C   C22       1.0  0.41761  0.85600  0.71150  1.0000
  C   C23       1.0  0.41761  0.64400  0.21150  1.0000
  C   C24       1.0  0.58239  0.14400  0.28850  1.0000
  C   C25       1.0  0.57826  0.29020  0.85310  1.0000
  C   C26       1.0  0.42174  0.79020  0.64690  1.0000
  C   C27       1.0  0.42174  0.70980  0.14690  1.0000
  C   C28       1.0  0.57826  0.20980  0.35310  1.0000
  C   C29       1.0  0.63030  0.29620  0.92540  1.0000
  C   C30       1.0  0.36970  0.79620  0.57460  1.0000
  C   C31       1.0  0.36970  0.70380  0.07460  1.0000
  C   C32       1.0  0.63030  0.20380  0.42540  1.0000
  H   H9        1.0  0.62950  0.25310  0.96730  1.0000
  H   H10       1.0  0.37050  0.75310  0.53270  1.0000
  H   H11       1.0  0.37050  0.74690  0.03270  1.0000
  H   H12       1.0  0.62950  0.24690  0.46730  1.0000
  C   C33       1.0  0.68130  0.36420  0.93410  1.0000
  C   C34       1.0  0.31870  0.86420  0.56590  1.0000
  C   C35       1.0  0.31870  0.63580  0.06590  1.0000
  C   C36       1.0  0.68130  0.13580  0.43410  1.0000
  H   H13       1.0  0.71490  0.36710  0.98190  1.0000
  H   H14       1.0  0.28510  0.86710  0.51810  1.0000
  H   H15       1.0  0.28510  0.63290  0.01810  1.0000
  H   H16       1.0  0.71490  0.13290  0.48190  1.0000
  C   C37       1.0  0.68380  0.43000  0.87190  1.0000
  C   C38       1.0  0.31620  0.93000  0.62810  1.0000
  C   C39       1.0  0.31620  0.57000  0.12810  1.0000
  C   C40       1.0  0.68380  0.07000  0.37190  1.0000
  H   H17       1.0  0.71830  0.47690  0.87920  1.0000
  H   H18       1.0  0.28170  0.97690  0.62080  1.0000
  H   H19       1.0  0.28170  0.52310  0.12080  1.0000
  H   H20       1.0  0.71830  0.02310  0.37920  1.0000
  C   C41       1.0  0.63630  0.42600  0.80130  1.0000
  C   C42       1.0  0.36370  0.92600  0.69870  1.0000
  C   C43       1.0  0.36370  0.57400  0.19870  1.0000
  C   C44       1.0  0.63630  0.07400  0.30130  1.0000
  H   H21       1.0  0.63910  0.46980  0.76030  1.0000
  H   H22       1.0  0.36090  0.96980  0.73970  1.0000
  H   H23       1.0  0.36090  0.53020  0.23970  1.0000
  H   H24       1.0  0.63910  0.03020  0.26030  1.0000
  C   C45       1.0  0.53450  0.40990  0.64140  1.0000
  C   C46       1.0  0.46550  0.90990  0.85860  1.0000
  C   C47       1.0  0.46550  0.59010  0.35860  1.0000
  C   C48       1.0  0.53450  0.09010  0.14140  1.0000
  C   C49       1.0  0.25030  0.16590  0.07560  1.0000
  C   C50       1.0  0.74970  0.66590  0.42440  1.0000
  C   C51       1.0  0.74970  0.83410  0.92440  1.0000
  C   C52       1.0  0.25030  0.33410  0.57560  1.0000
  C   C53       1.0  0.24016  0.23740  0.13990  1.0000
  C   C54       1.0  0.75984  0.73740  0.36010  1.0000
  C   C55       1.0  0.75984  0.76260  0.86010  1.0000
  C   C56       1.0  0.24016  0.26260  0.63990  1.0000
  C   C57       1.0  0.28370  0.23130  0.21420  1.0000
  C   C58       1.0  0.71630  0.73130  0.28580  1.0000
  C   C59       1.0  0.71630  0.76870  0.78580  1.0000
  C   C60       1.0  0.28370  0.26870  0.71420  1.0000
  H   H25       1.0  0.31940  0.18580  0.22150  1.0000
  H   H26       1.0  0.68060  0.68580  0.27850  1.0000
  H   H27       1.0  0.68060  0.81420  0.77850  1.0000
  H   H28       1.0  0.31940  0.31420  0.72150  1.0000
  C   C61       1.0  0.27630  0.29080  0.27920  1.0000
  C   C62       1.0  0.72370  0.79080  0.22080  1.0000
  C   C63       1.0  0.72370  0.70920  0.72080  1.0000
  C   C64       1.0  0.27630  0.20920  0.77920  1.0000
  H   H29       1.0  0.30760  0.28490  0.32850  1.0000
  H   H30       1.0  0.69240  0.78490  0.17150  1.0000
  H   H31       1.0  0.69240  0.71510  0.67150  1.0000
  H   H32       1.0  0.30760  0.21510  0.82850  1.0000
  C   C65       1.0  0.22398  0.35820  0.27220  1.0000
  C   C66       1.0  0.77602  0.85820  0.22780  1.0000
  C   C67       1.0  0.77602  0.64180  0.72780  1.0000
  C   C68       1.0  0.22398  0.14180  0.77220  1.0000
  C   C69       1.0  0.17722  0.36870  0.19560  1.0000
  C   C70       1.0  0.82278  0.86870  0.30440  1.0000
  C   C71       1.0  0.82278  0.63130  0.80440  1.0000
  C   C72       1.0  0.17722  0.13130  0.69560  1.0000
  C   C73       1.0  0.18639  0.30840  0.12770  1.0000
  C   C74       1.0  0.81361  0.80840  0.37230  1.0000
  C   C75       1.0  0.81361  0.69160  0.87230  1.0000
  C   C76       1.0  0.18639  0.19160  0.62770  1.0000
  C   C77       1.0  0.14320  0.32370  0.05090  1.0000
  C   C78       1.0  0.85680  0.82370  0.44910  1.0000
  C   C79       1.0  0.85680  0.67630  0.94910  1.0000
  C   C80       1.0  0.14320  0.17630  0.55090  1.0000
  H   H33       1.0  0.14910  0.28600  0.00590  1.0000
  H   H34       1.0  0.85090  0.78600  0.49410  1.0000
  H   H35       1.0  0.85090  0.71400  0.99410  1.0000
  H   H36       1.0  0.14910  0.21400  0.50590  1.0000
  C   C81       1.0  0.09270  0.39300  0.04150  1.0000
  C   C82       1.0  0.90730  0.89300  0.45850  1.0000
  C   C83       1.0  0.90730  0.60700  0.95850  1.0000
  C   C84       1.0  0.09270  0.10700  0.54150  1.0000
  H   H37       1.0  0.06500  0.40210  0.99020  1.0000
  H   H38       1.0  0.93500  0.90210  0.50980  1.0000
  H   H39       1.0  0.93500  0.59790  0.00980  1.0000
  H   H40       1.0  0.06500  0.09790  0.49020  1.0000
  C   C85       1.0  0.08240  0.45040  0.10820  1.0000
  C   C86       1.0  0.91760  0.95040  0.39180  1.0000
  C   C87       1.0  0.91760  0.54960  0.89180  1.0000
  C   C88       1.0  0.08240  0.04960  0.60820  1.0000
  H   H41       1.0  0.04740  0.49670  0.10150  1.0000
  H   H42       1.0  0.95260  0.99670  0.39850  1.0000
  H   H43       1.0  0.95260  0.50330  0.89850  1.0000
  H   H44       1.0  0.04740  0.00330  0.60150  1.0000
  C   C89       1.0  0.12332  0.43860  0.18290  1.0000
  C   C90       1.0  0.87668  0.93860  0.31710  1.0000
  C   C91       1.0  0.87668  0.56140  0.81710  1.0000
  C   C92       1.0  0.12332  0.06140  0.68290  1.0000
  H   H45       1.0  0.11580  0.47720  0.22680  1.0000
  H   H46       1.0  0.88420  0.97720  0.27320  1.0000
  H   H47       1.0  0.88420  0.52280  0.77320  1.0000
  H   H48       1.0  0.11580  0.02280  0.72680  1.0000
  C   C93       1.0  0.22213  0.41840  0.34740  1.0000
  C   C94       1.0  0.77787  0.91840  0.15260  1.0000
  C   C95       1.0  0.77787  0.58160  0.65260  1.0000
  C   C96       1.0  0.22213  0.08160  0.84740  1.0000
  C   C97       1.0  0.00060  0.13220  0.12140  1.0000
  C   C98       1.0  0.99940  0.63220  0.37860  1.0000
  C   C99       1.0  0.99940  0.86780  0.87860  1.0000
  C   C100      1.0  0.00060  0.36780  0.62140  1.0000
  C   C101      1.0  0.99829  0.21060  0.18020  1.0000
  C   C102      1.0  0.00171  0.71060  0.31980  1.0000
  C   C103      1.0  0.00171  0.78940  0.81980  1.0000
  C   C104      1.0  0.99829  0.28940  0.68020  1.0000
  C   C105      1.0  0.03700  0.20390  0.25820  1.0000
  C   C106      1.0  0.96300  0.70390  0.24180  1.0000
  C   C107      1.0  0.96300  0.79610  0.74180  1.0000
  C   C108      1.0  0.03700  0.29610  0.75820  1.0000
  H   H49       1.0  0.07050  0.15670  0.26980  1.0000
  H   H50       1.0  0.92950  0.65670  0.23020  1.0000
  H   H51       1.0  0.92950  0.84330  0.73020  1.0000
  H   H52       1.0  0.07050  0.34330  0.76980  1.0000
  C   C109      1.0  0.02650  0.26770  0.32020  1.0000
  C   C110      1.0  0.97350  0.76770  0.17980  1.0000
  C   C111      1.0  0.97350  0.73230  0.67980  1.0000
  C   C112      1.0  0.02650  0.23230  0.82020  1.0000
  H   H53       1.0  0.05360  0.26260  0.37230  1.0000
  H   H54       1.0  0.94640  0.76260  0.12770  1.0000
  H   H55       1.0  0.94640  0.73740  0.62770  1.0000
  H   H56       1.0  0.05360  0.23740  0.87230  1.0000
  C   C113      1.0  0.97694  0.33710  0.30510  1.0000
  C   C114      1.0  0.02306  0.83710  0.19490  1.0000
  C   C115      1.0  0.02306  0.66290  0.69490  1.0000
  C   C116      1.0  0.97694  0.16290  0.80510  1.0000
  C   C117      1.0  0.94160  0.35170  0.22270  1.0000
  C   C118      1.0  0.05840  0.85170  0.27730  1.0000
  C   C119      1.0  0.05840  0.64830  0.77730  1.0000
  C   C120      1.0  0.94160  0.14830  0.72270  1.0000
  C   C121      1.0  0.95223  0.28720  0.15980  1.0000
  C   C122      1.0  0.04777  0.78720  0.34020  1.0000
  C   C123      1.0  0.04777  0.71280  0.84020  1.0000
  C   C124      1.0  0.95223  0.21280  0.65980  1.0000
  C   C125      1.0  0.91860  0.30320  0.07710  1.0000
  C   C126      1.0  0.08140  0.80320  0.42290  1.0000
  C   C127      1.0  0.08140  0.69680  0.92290  1.0000
  C   C128      1.0  0.91860  0.19680  0.57710  1.0000
  H   H57       1.0  0.92440  0.26120  0.03520  1.0000
  H   H58       1.0  0.07560  0.76120  0.46480  1.0000
  H   H59       1.0  0.07560  0.73880  0.96480  1.0000
  H   H60       1.0  0.92440  0.23880  0.53520  1.0000
  C   C129      1.0  0.87860  0.37870  0.05940  1.0000
  C   C130      1.0  0.12140  0.87870  0.44060  1.0000
  C   C131      1.0  0.12140  0.62130  0.94060  1.0000
  C   C132      1.0  0.87860  0.12130  0.55940  1.0000
  H   H61       1.0  0.85720  0.38870  0.00520  1.0000
  H   H62       1.0  0.14280  0.88870  0.49480  1.0000
  H   H63       1.0  0.14280  0.61130  0.99480  1.0000
  H   H64       1.0  0.85720  0.11130  0.50520  1.0000
  C   C133      1.0  0.86890  0.44240  0.12110  1.0000
  C   C134      1.0  0.13110  0.94240  0.37890  1.0000
  C   C135      1.0  0.13110  0.55760  0.87890  1.0000
  C   C136      1.0  0.86890  0.05760  0.62110  1.0000
  H   H65       1.0  0.84130  0.49440  0.10710  1.0000
  H   H66       1.0  0.15870  0.99440  0.39290  1.0000
  H   H67       1.0  0.15870  0.50560  0.89290  1.0000
  H   H68       1.0  0.84130  0.00560  0.60710  1.0000
  C   C137      1.0  0.89860  0.43040  0.20130  1.0000
  C   C138      1.0  0.10140  0.93040  0.29870  1.0000
  C   C139      1.0  0.10140  0.56960  0.79870  1.0000
  C   C140      1.0  0.89860  0.06960  0.70130  1.0000
  H   H69       1.0  0.89100  0.47330  0.24180  1.0000
  H   H70       1.0  0.10900  0.97330  0.25820  1.0000
  H   H71       1.0  0.10900  0.52670  0.75820  1.0000
  H   H72       1.0  0.89100  0.02670  0.74180  1.0000
  C   C141      1.0  0.95630  0.39220  0.37620  1.0000
  C   C142      1.0  0.04370  0.89220  0.12380  1.0000
  C   C143      1.0  0.04370  0.60780  0.62380  1.0000
  C   C144      1.0  0.95630  0.10780  0.87620  1.0000
