data_image0
_chemical_formula_structural       Eu8Cl4O48C12H4C4H4C16H4C4H4C4H4C4H4C16H4C4H4C16H4C4H4C4H4C4H4C16H4C4H4C16H4C4H4C4H4C4H4C4
_chemical_formula_sum              "Eu8 Cl4 O48 C144 H72"
_cell_length_a       17.7876
_cell_length_b       14.8189
_cell_length_c       15.9496
_cell_angle_alpha    90
_cell_angle_beta     94.9429
_cell_angle_gamma    90

_space_group_name_H-M_alt    "P 1"
_space_group_IT_number       1

loop_
  _space_group_symop_operation_xyz
  'x, y, z'

loop_
  _atom_site_type_symbol
  _atom_site_label
  _atom_site_symmetry_multiplicity
  _atom_site_fract_x
  _atom_site_fract_y
  _atom_site_fract_z
  _atom_site_occupancy
  Eu  Eu1       1.0  0.37811  0.02472  0.99521  1.0000
  Eu  Eu2       1.0  0.62189  0.52472  0.50479  1.0000
  Eu  Eu3       1.0  0.62189  0.97528  0.00479  1.0000
  Eu  Eu4       1.0  0.37811  0.47528  0.49521  1.0000
  Eu  Eu5       1.0  0.11614  0.01198  0.99884  1.0000
  Eu  Eu6       1.0  0.88386  0.51198  0.50116  1.0000
  Eu  Eu7       1.0  0.88386  0.98802  0.00116  1.0000
  Eu  Eu8       1.0  0.11614  0.48802  0.49884  1.0000
  Cl  Cl1       1.0  0.25207  0.91561  0.02369  1.0000
  Cl  Cl2       1.0  0.74793  0.41561  0.47631  1.0000
  Cl  Cl3       1.0  0.74793  0.08439  0.97631  1.0000
  Cl  Cl4       1.0  0.25207  0.58439  0.52369  1.0000
  O   O1        1.0  0.44934  0.12570  0.92262  1.0000
  O   O2        1.0  0.55066  0.62570  0.57738  1.0000
  O   O3        1.0  0.55066  0.87430  0.07738  1.0000
  O   O4        1.0  0.44934  0.37430  0.42262  1.0000
  O   O5        1.0  0.57390  0.10769  0.93695  1.0000
  O   O6        1.0  0.42610  0.60769  0.56305  1.0000
  O   O7        1.0  0.42610  0.89231  0.06305  1.0000
  O   O8        1.0  0.57390  0.39231  0.43695  1.0000
  O   O9        1.0  0.31539  0.13080  0.07393  1.0000
  O   O10       1.0  0.68461  0.63080  0.42607  1.0000
  O   O11       1.0  0.68461  0.86920  0.92607  1.0000
  O   O12       1.0  0.31539  0.36920  0.57393  1.0000
  O   O13       1.0  0.47146  0.43030  0.59867  1.0000
  O   O14       1.0  0.52854  0.93030  0.90133  1.0000
  O   O15       1.0  0.52854  0.56970  0.40133  1.0000
  O   O16       1.0  0.47146  0.06970  0.09867  1.0000
  O   O17       1.0  0.19324  0.13517  0.03079  1.0000
  O   O18       1.0  0.80676  0.63517  0.46921  1.0000
  O   O19       1.0  0.80676  0.86483  0.96921  1.0000
  O   O20       1.0  0.19324  0.36483  0.53079  1.0000
  O   O21       1.0  0.59570  0.43240  0.61748  1.0000
  O   O22       1.0  0.40430  0.93240  0.88252  1.0000
  O   O23       1.0  0.40430  0.56760  0.38252  1.0000
  O   O24       1.0  0.59570  0.06760  0.11748  1.0000
  O   O25       1.0  0.28800  0.43033  0.38978  1.0000
  O   O26       1.0  0.71200  0.93033  0.11022  1.0000
  O   O27       1.0  0.71200  0.56967  0.61022  1.0000
  O   O28       1.0  0.28800  0.06967  0.88978  1.0000
  O   O29       1.0  0.16426  0.45323  0.36853  1.0000
  O   O30       1.0  0.83574  0.95323  0.13147  1.0000
  O   O31       1.0  0.83574  0.54677  0.63147  1.0000
  O   O32       1.0  0.16426  0.04677  0.86853  1.0000
  O   O33       1.0  0.06173  0.09084  0.11054  1.0000
  O   O34       1.0  0.93827  0.59084  0.38946  1.0000
  O   O35       1.0  0.93827  0.90916  0.88946  1.0000
  O   O36       1.0  0.06173  0.40916  0.61054  1.0000
  O   O37       1.0  0.93633  0.10238  0.08794  1.0000
  O   O38       1.0  0.06367  0.60238  0.41206  1.0000
  O   O39       1.0  0.06367  0.89762  0.91206  1.0000
  O   O40       1.0  0.93633  0.39762  0.58794  1.0000
  O   O41       1.0  0.01392  0.41254  0.43511  1.0000
  O   O42       1.0  0.98608  0.91254  0.06489  1.0000
  O   O43       1.0  0.98608  0.58746  0.56489  1.0000
  O   O44       1.0  0.01392  0.08746  0.93511  1.0000
  O   O45       1.0  0.89384  0.40480  0.38914  1.0000
  O   O46       1.0  0.10616  0.90480  0.11086  1.0000
  O   O47       1.0  0.10616  0.59520  0.61086  1.0000
  O   O48       1.0  0.89384  0.09520  0.88914  1.0000
  C   C1        1.0  0.51450  0.14560  0.90670  1.0000
  C   C2        1.0  0.48550  0.64560  0.59330  1.0000
  C   C3        1.0  0.48550  0.85440  0.09330  1.0000
  C   C4        1.0  0.51450  0.35440  0.40670  1.0000
  C   C5        1.0  0.52170  0.21890  0.84200  1.0000
  C   C6        1.0  0.47830  0.71890  0.65800  1.0000
  C   C7        1.0  0.47830  0.78110  0.15800  1.0000
  C   C8        1.0  0.52170  0.28110  0.34200  1.0000
  C   C9        1.0  0.47150  0.21750  0.77170  1.0000
  C   C10       1.0  0.52850  0.71750  0.72830  1.0000
  C   C11       1.0  0.52850  0.78250  0.22830  1.0000
  C   C12       1.0  0.47150  0.28250  0.27170  1.0000
  H   H1        1.0  0.43440  0.17320  0.76630  1.0000
  H   H2        1.0  0.56560  0.67320  0.73370  1.0000
  H   H3        1.0  0.56560  0.82680  0.23370  1.0000
  H   H4        1.0  0.43440  0.32680  0.26630  1.0000
  C   C13       1.0  0.47530  0.28180  0.70810  1.0000
  C   C14       1.0  0.52470  0.78180  0.79190  1.0000
  C   C15       1.0  0.52470  0.71820  0.29190  1.0000
  C   C16       1.0  0.47530  0.21820  0.20810  1.0000
  H   H5        1.0  0.44030  0.27970  0.66130  1.0000
  H   H6        1.0  0.55970  0.77970  0.83870  1.0000
  H   H7        1.0  0.55970  0.72030  0.33870  1.0000
  H   H8        1.0  0.44030  0.22030  0.16130  1.0000
  C   C17       1.0  0.52930  0.34760  0.71320  1.0000
  C   C18       1.0  0.47070  0.84760  0.78680  1.0000
  C   C19       1.0  0.47070  0.65240  0.28680  1.0000
  C   C20       1.0  0.52930  0.15240  0.21320  1.0000
  C   C21       1.0  0.58146  0.35410  0.78650  1.0000
  C   C22       1.0  0.41854  0.85410  0.71350  1.0000
  C   C23       1.0  0.41854  0.64590  0.21350  1.0000
  C   C24       1.0  0.58146  0.14590  0.28650  1.0000
  C   C25       1.0  0.57820  0.28780  0.85110  1.0000
  C   C26       1.0  0.42180  0.78780  0.64890  1.0000
  C   C27       1.0  0.42180  0.71220  0.14890  1.0000
  C   C28       1.0  0.57820  0.21220  0.35110  1.0000
  C   C29       1.0  0.62980  0.29470  0.92380  1.0000
  C   C30       1.0  0.37020  0.79470  0.57620  1.0000
  C   C31       1.0  0.37020  0.70530  0.07620  1.0000
  C   C32       1.0  0.62980  0.20530  0.42380  1.0000
  H   H9        1.0  0.62930  0.25150  0.96600  1.0000
  H   H10       1.0  0.37070  0.75150  0.53400  1.0000
  H   H11       1.0  0.37070  0.74850  0.03400  1.0000
  H   H12       1.0  0.62930  0.24850  0.46600  1.0000
  C   C33       1.0  0.68030  0.36420  0.93220  1.0000
  C   C34       1.0  0.31970  0.86420  0.56780  1.0000
  C   C35       1.0  0.31970  0.63580  0.06780  1.0000
  C   C36       1.0  0.68030  0.13580  0.43220  1.0000
  H   H13       1.0  0.71410  0.36760  0.98000  1.0000
  H   H14       1.0  0.28590  0.86760  0.52000  1.0000
  H   H15       1.0  0.28590  0.63240  0.02000  1.0000
  H   H16       1.0  0.71410  0.13240  0.48000  1.0000
  C   C37       1.0  0.68160  0.43040  0.86960  1.0000
  C   C38       1.0  0.31840  0.93040  0.63040  1.0000
  C   C39       1.0  0.31840  0.56960  0.13040  1.0000
  C   C40       1.0  0.68160  0.06960  0.36960  1.0000
  H   H17       1.0  0.71570  0.47790  0.87680  1.0000
  H   H18       1.0  0.28430  0.97790  0.62320  1.0000
  H   H19       1.0  0.28430  0.52210  0.12320  1.0000
  H   H20       1.0  0.71570  0.02210  0.37680  1.0000
  C   C41       1.0  0.63430  0.42600  0.79920  1.0000
  C   C42       1.0  0.36570  0.92600  0.70080  1.0000
  C   C43       1.0  0.36570  0.57400  0.20080  1.0000
  C   C44       1.0  0.63430  0.07400  0.29920  1.0000
  H   H21       1.0  0.63610  0.47060  0.75840  1.0000
  H   H22       1.0  0.36390  0.97060  0.74160  1.0000
  H   H23       1.0  0.36390  0.52940  0.24160  1.0000
  H   H24       1.0  0.63610  0.02940  0.25840  1.0000
  C   C45       1.0  0.53250  0.40840  0.63810  1.0000
  C   C46       1.0  0.46750  0.90840  0.86190  1.0000
  C   C47       1.0  0.46750  0.59160  0.36190  1.0000
  C   C48       1.0  0.53250  0.09160  0.13810  1.0000
  C   C49       1.0  0.24980  0.16250  0.07620  1.0000
  C   C50       1.0  0.75020  0.66250  0.42380  1.0000
  C   C51       1.0  0.75020  0.83750  0.92380  1.0000
  C   C52       1.0  0.24980  0.33750  0.57620  1.0000
  C   C53       1.0  0.23940  0.23430  0.14080  1.0000
  C   C54       1.0  0.76060  0.73430  0.35920  1.0000
  C   C55       1.0  0.76060  0.76570  0.85920  1.0000
  C   C56       1.0  0.23940  0.26570  0.64080  1.0000
  C   C57       1.0  0.28310  0.22720  0.21560  1.0000
  C   C58       1.0  0.71690  0.72720  0.28440  1.0000
  C   C59       1.0  0.71690  0.77280  0.78440  1.0000
  C   C60       1.0  0.28310  0.27280  0.71560  1.0000
  H   H25       1.0  0.31790  0.18030  0.22280  1.0000
  H   H26       1.0  0.68210  0.68030  0.27720  1.0000
  H   H27       1.0  0.68210  0.81970  0.77720  1.0000
  H   H28       1.0  0.31790  0.31970  0.72280  1.0000
  C   C61       1.0  0.27700  0.28790  0.28100  1.0000
  C   C62       1.0  0.72300  0.78790  0.21900  1.0000
  C   C63       1.0  0.72300  0.71210  0.71900  1.0000
  C   C64       1.0  0.27700  0.21210  0.78100  1.0000
  H   H29       1.0  0.30820  0.28130  0.33060  1.0000
  H   H30       1.0  0.69180  0.78130  0.16940  1.0000
  H   H31       1.0  0.69180  0.71870  0.66940  1.0000
  H   H32       1.0  0.30820  0.21870  0.83060  1.0000
  C   C65       1.0  0.22584  0.35760  0.27400  1.0000
  C   C66       1.0  0.77416  0.85760  0.22600  1.0000
  C   C67       1.0  0.77416  0.64240  0.72600  1.0000
  C   C68       1.0  0.22584  0.14240  0.77400  1.0000
  C   C69       1.0  0.17865  0.36790  0.19734  1.0000
  C   C70       1.0  0.82135  0.86790  0.30266  1.0000
  C   C71       1.0  0.82135  0.63210  0.80266  1.0000
  C   C72       1.0  0.17865  0.13210  0.69734  1.0000
  C   C73       1.0  0.18670  0.30670  0.12880  1.0000
  C   C74       1.0  0.81330  0.80670  0.37120  1.0000
  C   C75       1.0  0.81330  0.69330  0.87120  1.0000
  C   C76       1.0  0.18670  0.19330  0.62880  1.0000
  C   C77       1.0  0.14340  0.32270  0.05210  1.0000
  C   C78       1.0  0.85660  0.82270  0.44790  1.0000
  C   C79       1.0  0.85660  0.67730  0.94790  1.0000
  C   C80       1.0  0.14340  0.17730  0.55210  1.0000
  H   H33       1.0  0.14870  0.28440  0.00680  1.0000
  H   H34       1.0  0.85130  0.78440  0.49320  1.0000
  H   H35       1.0  0.85130  0.71560  0.99320  1.0000
  H   H36       1.0  0.14870  0.21560  0.50680  1.0000
  C   C81       1.0  0.09400  0.39310  0.04270  1.0000
  C   C82       1.0  0.90600  0.89310  0.45730  1.0000
  C   C83       1.0  0.90600  0.60690  0.95730  1.0000
  C   C84       1.0  0.09400  0.10690  0.54270  1.0000
  H   H37       1.0  0.06640  0.40250  0.99120  1.0000
  H   H38       1.0  0.93360  0.90250  0.50880  1.0000
  H   H39       1.0  0.93360  0.59750  0.00880  1.0000
  H   H40       1.0  0.06640  0.09750  0.49120  1.0000
  C   C85       1.0  0.08500  0.45070  0.10970  1.0000
  C   C86       1.0  0.91500  0.95070  0.39030  1.0000
  C   C87       1.0  0.91500  0.54930  0.89030  1.0000
  C   C88       1.0  0.08500  0.04930  0.60970  1.0000
  H   H41       1.0  0.05060  0.49800  0.10300  1.0000
  H   H42       1.0  0.94940  0.99800  0.39700  1.0000
  H   H43       1.0  0.94940  0.50200  0.89700  1.0000
  H   H44       1.0  0.05060  0.00200  0.60300  1.0000
  C   C89       1.0  0.12560  0.43910  0.18480  1.0000
  C   C90       1.0  0.87440  0.93910  0.31520  1.0000
  C   C91       1.0  0.87440  0.56090  0.81520  1.0000
  C   C92       1.0  0.12560  0.06090  0.68480  1.0000
  H   H45       1.0  0.11860  0.47850  0.22880  1.0000
  H   H46       1.0  0.88140  0.97850  0.27120  1.0000
  H   H47       1.0  0.88140  0.52150  0.77120  1.0000
  H   H48       1.0  0.11860  0.02150  0.72880  1.0000
  C   C93       1.0  0.22520  0.41940  0.34940  1.0000
  C   C94       1.0  0.77480  0.91940  0.15060  1.0000
  C   C95       1.0  0.77480  0.58060  0.65060  1.0000
  C   C96       1.0  0.22520  0.08060  0.84940  1.0000
  C   C97       1.0  0.00020  0.12730  0.12080  1.0000
  C   C98       1.0  0.99980  0.62730  0.37920  1.0000
  C   C99       1.0  0.99980  0.87270  0.87920  1.0000
  C   C100      1.0  0.00020  0.37270  0.62080  1.0000
  C   C101      1.0  0.99910  0.20530  0.18060  1.0000
  C   C102      1.0  0.00090  0.70530  0.31940  1.0000
  C   C103      1.0  0.00090  0.79470  0.81940  1.0000
  C   C104      1.0  0.99910  0.29470  0.68060  1.0000
  C   C105      1.0  0.03870  0.19790  0.25780  1.0000
  C   C106      1.0  0.96130  0.69790  0.24220  1.0000
  C   C107      1.0  0.96130  0.80210  0.74220  1.0000
  C   C108      1.0  0.03870  0.30210  0.75780  1.0000
  H   H49       1.0  0.07160  0.14970  0.26840  1.0000
  H   H50       1.0  0.92840  0.64970  0.23160  1.0000
  H   H51       1.0  0.92840  0.85030  0.73160  1.0000
  H   H52       1.0  0.07160  0.35030  0.76840  1.0000
  C   C109      1.0  0.03040  0.26180  0.32150  1.0000
  C   C110      1.0  0.96960  0.76180  0.17850  1.0000
  C   C111      1.0  0.96960  0.73820  0.67850  1.0000
  C   C112      1.0  0.03040  0.23820  0.82150  1.0000
  H   H53       1.0  0.05880  0.25620  0.37310  1.0000
  H   H54       1.0  0.94120  0.75620  0.12690  1.0000
  H   H55       1.0  0.94120  0.74380  0.62690  1.0000
  H   H56       1.0  0.05880  0.24380  0.87310  1.0000
  C   C113      1.0  0.98110  0.33230  0.30830  1.0000
  C   C114      1.0  0.01890  0.83230  0.19170  1.0000
  C   C115      1.0  0.01890  0.66770  0.69170  1.0000
  C   C116      1.0  0.98110  0.16770  0.80830  1.0000
  C   C117      1.0  0.94410  0.34780  0.22540  1.0000
  C   C118      1.0  0.05590  0.84780  0.27460  1.0000
  C   C119      1.0  0.05590  0.65220  0.77460  1.0000
  C   C120      1.0  0.94410  0.15220  0.72540  1.0000
  C   C121      1.0  0.95380  0.28320  0.16210  1.0000
  C   C122      1.0  0.04620  0.78320  0.33790  1.0000
  C   C123      1.0  0.04620  0.71680  0.83790  1.0000
  C   C124      1.0  0.95380  0.21680  0.66210  1.0000
  C   C125      1.0  0.91900  0.30050  0.07930  1.0000
  C   C126      1.0  0.08100  0.80050  0.42070  1.0000
  C   C127      1.0  0.08100  0.69950  0.92070  1.0000
  C   C128      1.0  0.91900  0.19950  0.57930  1.0000
  H   H57       1.0  0.92340  0.25850  0.03660  1.0000
  H   H58       1.0  0.07660  0.75850  0.46340  1.0000
  H   H59       1.0  0.07660  0.74150  0.96340  1.0000
  H   H60       1.0  0.92340  0.24150  0.53660  1.0000
  C   C129      1.0  0.87990  0.37740  0.06310  1.0000
  C   C130      1.0  0.12010  0.87740  0.43690  1.0000
  C   C131      1.0  0.12010  0.62260  0.93690  1.0000
  C   C132      1.0  0.87990  0.12260  0.56310  1.0000
  H   H61       1.0  0.85840  0.38830  0.00890  1.0000
  H   H62       1.0  0.14160  0.88830  0.49110  1.0000
  H   H63       1.0  0.14160  0.61170  0.99110  1.0000
  H   H64       1.0  0.85840  0.11170  0.50890  1.0000
  C   C133      1.0  0.87120  0.44030  0.12570  1.0000
  C   C134      1.0  0.12880  0.94030  0.37430  1.0000
  C   C135      1.0  0.12880  0.55970  0.87430  1.0000
  C   C136      1.0  0.87120  0.05970  0.62570  1.0000
  H   H65       1.0  0.84400  0.49290  0.11290  1.0000
  H   H66       1.0  0.15600  0.99290  0.38710  1.0000
  H   H67       1.0  0.15600  0.50710  0.88710  1.0000
  H   H68       1.0  0.84400  0.00710  0.61290  1.0000
  C   C137      1.0  0.90170  0.42610  0.20520  1.0000
  C   C138      1.0  0.09830  0.92610  0.29480  1.0000
  C   C139      1.0  0.09830  0.57390  0.79480  1.0000
  C   C140      1.0  0.90170  0.07390  0.70520  1.0000
  H   H69       1.0  0.89460  0.46850  0.24680  1.0000
  H   H70       1.0  0.10540  0.96850  0.25320  1.0000
  H   H71       1.0  0.10540  0.53150  0.75320  1.0000
  H   H72       1.0  0.89460  0.03150  0.74680  1.0000
  C   C141      1.0  0.96190  0.38760  0.38130  1.0000
  C   C142      1.0  0.03810  0.88760  0.11870  1.0000
  C   C143      1.0  0.03810  0.61240  0.61870  1.0000
  C   C144      1.0  0.96190  0.11240  0.88130  1.0000
