data_image0
_chemical_formula_structural       Ga4O32C12H4C4H4C8H4C4H4C12H4C4H4C12H4C4H4C4
_chemical_formula_sum              "Ga4 O32 C64 H32"
_cell_length_a       6.8573
_cell_length_b       31.164
_cell_length_c       11.1749
_cell_angle_alpha    90
_cell_angle_beta     105.515
_cell_angle_gamma    90

_space_group_name_H-M_alt    "P 1"
_space_group_IT_number       1

loop_
  _space_group_symop_operation_xyz
  'x, y, z'

loop_
  _atom_site_type_symbol
  _atom_site_label
  _atom_site_symmetry_multiplicity
  _atom_site_fract_x
  _atom_site_fract_y
  _atom_site_fract_z
  _atom_site_occupancy
  Ga  Ga1       1.0  0.77971  0.12741  0.26478  1.0000
  Ga  Ga2       1.0  0.22029  0.62741  0.23522  1.0000
  Ga  Ga3       1.0  0.22029  0.87259  0.73522  1.0000
  Ga  Ga4       1.0  0.77971  0.37259  0.76478  1.0000
  O   O1        1.0  0.57650  0.16545  0.19110  1.0000
  O   O2        1.0  0.42350  0.66545  0.30890  1.0000
  O   O3        1.0  0.42350  0.83455  0.80890  1.0000
  O   O4        1.0  0.57650  0.33455  0.69110  1.0000
  O   O5        1.0  0.76710  0.19189  0.07770  1.0000
  O   O6        1.0  0.23290  0.69189  0.42230  1.0000
  O   O7        1.0  0.23290  0.80811  0.92230  1.0000
  O   O8        1.0  0.76710  0.30811  0.57770  1.0000
  O   O9        1.0  0.60270  0.07116  0.04880  1.0000
  O   O10       1.0  0.39730  0.57116  0.45120  1.0000
  O   O11       1.0  0.39730  0.92884  0.95120  1.0000
  O   O12       1.0  0.60270  0.42884  0.54880  1.0000
  O   O13       1.0  0.89420  0.09178  0.17140  1.0000
  O   O14       1.0  0.10580  0.59178  0.32860  1.0000
  O   O15       1.0  0.10580  0.90822  0.82860  1.0000
  O   O16       1.0  0.89420  0.40822  0.67140  1.0000
  O   O17       1.0  0.91500  0.06861  0.46370  1.0000
  O   O18       1.0  0.08500  0.56861  0.03630  1.0000
  O   O19       1.0  0.08500  0.93139  0.53630  1.0000
  O   O20       1.0  0.91500  0.43139  0.96370  1.0000
  O   O21       1.0  0.62920  0.09273  0.34070  1.0000
  O   O22       1.0  0.37080  0.59273  0.15930  1.0000
  O   O23       1.0  0.37080  0.90727  0.65930  1.0000
  O   O24       1.0  0.62920  0.40727  0.84070  1.0000
  O   O25       1.0  0.01370  0.34273  0.84080  1.0000
  O   O26       1.0  0.98630  0.84273  0.65920  1.0000
  O   O27       1.0  0.98630  0.65727  0.15920  1.0000
  O   O28       1.0  0.01370  0.15727  0.34080  1.0000
  O   O29       1.0  0.84880  0.32303  0.97670  1.0000
  O   O30       1.0  0.15120  0.82303  0.52330  1.0000
  O   O31       1.0  0.15120  0.67697  0.02330  1.0000
  O   O32       1.0  0.84880  0.17697  0.47670  1.0000
  C   C1        1.0  0.61440  0.19287  0.11320  1.0000
  C   C2        1.0  0.38560  0.69287  0.38680  1.0000
  C   C3        1.0  0.38560  0.80713  0.88680  1.0000
  C   C4        1.0  0.61440  0.30713  0.61320  1.0000
  C   C5        1.0  0.45620  0.22665  0.07080  1.0000
  C   C6        1.0  0.54380  0.72665  0.42920  1.0000
  C   C7        1.0  0.54380  0.77335  0.92920  1.0000
  C   C8        1.0  0.45620  0.27335  0.57080  1.0000
  C   C9        1.0  0.48350  0.25838  0.98950  1.0000
  C   C10       1.0  0.51650  0.75838  0.51050  1.0000
  C   C11       1.0  0.51650  0.74162  0.01050  1.0000
  C   C12       1.0  0.48350  0.24162  0.48950  1.0000
  H   H1        1.0  0.60150  0.25860  0.96360  1.0000
  H   H2        1.0  0.39850  0.75860  0.53640  1.0000
  H   H3        1.0  0.39850  0.74140  0.03640  1.0000
  H   H4        1.0  0.60150  0.24140  0.46360  1.0000
  C   C13       1.0  0.33900  0.28948  0.94660  1.0000
  C   C14       1.0  0.66100  0.78948  0.55340  1.0000
  C   C15       1.0  0.66100  0.71052  0.05340  1.0000
  C   C16       1.0  0.33900  0.21052  0.44660  1.0000
  H   H5        1.0  0.35920  0.31060  0.89220  1.0000
  H   H6        1.0  0.64080  0.81060  0.60780  1.0000
  H   H7        1.0  0.64080  0.68940  0.10780  1.0000
  H   H8        1.0  0.35920  0.18940  0.39220  1.0000
  C   C17       1.0  0.16330  0.28899  0.98530  1.0000
  C   C18       1.0  0.83670  0.78899  0.51470  1.0000
  C   C19       1.0  0.83670  0.71101  0.01470  1.0000
  C   C20       1.0  0.16330  0.21101  0.48530  1.0000
  C   C21       1.0  0.13600  0.25810  0.06840  1.0000
  C   C22       1.0  0.86400  0.75810  0.43160  1.0000
  C   C23       1.0  0.86400  0.74190  0.93160  1.0000
  C   C24       1.0  0.13600  0.24190  0.56840  1.0000
  H   H9        1.0  0.01960  0.25830  0.09600  1.0000
  H   H10       1.0  0.98040  0.75830  0.40400  1.0000
  H   H11       1.0  0.98040  0.74170  0.90400  1.0000
  H   H12       1.0  0.01960  0.24170  0.59600  1.0000
  C   C25       1.0  0.28110  0.22697  0.11040  1.0000
  C   C26       1.0  0.71890  0.72697  0.38960  1.0000
  C   C27       1.0  0.71890  0.77303  0.88960  1.0000
  C   C28       1.0  0.28110  0.27303  0.61040  1.0000
  H   H13       1.0  0.26140  0.20610  0.16550  1.0000
  H   H14       1.0  0.73860  0.70610  0.33450  1.0000
  H   H15       1.0  0.73860  0.79390  0.83450  1.0000
  H   H16       1.0  0.26140  0.29390  0.66550  1.0000
  C   C29       1.0  0.78230  0.06699  0.08790  1.0000
  C   C30       1.0  0.21770  0.56699  0.41210  1.0000
  C   C31       1.0  0.21770  0.93301  0.91210  1.0000
  C   C32       1.0  0.78230  0.43301  0.58790  1.0000
  C   C33       1.0  0.89710  0.03237  0.04250  1.0000
  C   C34       1.0  0.10290  0.53237  0.45750  1.0000
  C   C35       1.0  0.10290  0.96763  0.95750  1.0000
  C   C36       1.0  0.89710  0.46763  0.54250  1.0000
  C   C37       1.0  0.10290  0.02745  0.09150  1.0000
  C   C38       1.0  0.89710  0.52745  0.40850  1.0000
  C   C39       1.0  0.89710  0.97255  0.90850  1.0000
  C   C40       1.0  0.10290  0.47255  0.59150  1.0000
  H   H17       1.0  0.17310  0.04600  0.15320  1.0000
  H   H18       1.0  0.82690  0.54600  0.34680  1.0000
  H   H19       1.0  0.82690  0.95400  0.84680  1.0000
  H   H20       1.0  0.17310  0.45400  0.65320  1.0000
  C   C41       1.0  0.79490  0.00483  0.95050  1.0000
  C   C42       1.0  0.20510  0.50483  0.54950  1.0000
  C   C43       1.0  0.20510  0.99517  0.04950  1.0000
  C   C44       1.0  0.79490  0.49517  0.45050  1.0000
  H   H21       1.0  0.65620  0.00800  0.91670  1.0000
  H   H22       1.0  0.34380  0.50800  0.58330  1.0000
  H   H23       1.0  0.34380  0.99200  0.08330  1.0000
  H   H24       1.0  0.65620  0.49200  0.41670  1.0000
  C   C45       1.0  0.73230  0.06631  0.42270  1.0000
  C   C46       1.0  0.26770  0.56631  0.07730  1.0000
  C   C47       1.0  0.26770  0.93369  0.57730  1.0000
  C   C48       1.0  0.73230  0.43369  0.92270  1.0000
  C   C49       1.0  0.61010  0.03255  0.46380  1.0000
  C   C50       1.0  0.38990  0.53255  0.03620  1.0000
  C   C51       1.0  0.38990  0.96745  0.53620  1.0000
  C   C52       1.0  0.61010  0.46745  0.96380  1.0000
  C   C53       1.0  0.40060  0.03419  0.43140  1.0000
  C   C54       1.0  0.59940  0.53419  0.06860  1.0000
  C   C55       1.0  0.59940  0.96581  0.56860  1.0000
  C   C56       1.0  0.40060  0.46581  0.93140  1.0000
  H   H25       1.0  0.33360  0.05720  0.38520  1.0000
  H   H26       1.0  0.66640  0.55720  0.11480  1.0000
  H   H27       1.0  0.66640  0.94280  0.61480  1.0000
  H   H28       1.0  0.33360  0.44280  0.88520  1.0000
  C   C57       1.0  0.70880  0.99798  0.53300  1.0000
  C   C58       1.0  0.29120  0.49798  0.96700  1.0000
  C   C59       1.0  0.29120  0.00202  0.46700  1.0000
  C   C60       1.0  0.70880  0.50202  0.03300  1.0000
  H   H29       1.0  0.84940  0.99670  0.55530  1.0000
  H   H30       1.0  0.15060  0.49670  0.94470  1.0000
  H   H31       1.0  0.15060  0.00330  0.44470  1.0000
  H   H32       1.0  0.84940  0.50330  0.05530  1.0000
  C   C61       1.0  0.99470  0.32039  0.93450  1.0000
  C   C62       1.0  0.00530  0.82039  0.56550  1.0000
  C   C63       1.0  0.00530  0.67961  0.06550  1.0000
  C   C64       1.0  0.99470  0.17961  0.43450  1.0000
