data_image0
_chemical_formula_structural       C12H4C4H4C12H4C4H4C12H4C4H4C12H4C4H4Ga4O32
_chemical_formula_sum              "C64 H32 Ga4 O32"
_cell_length_a       6.7957
_cell_length_b       31.23
_cell_length_c       11.3264
_cell_angle_alpha    90
_cell_angle_beta     105.087
_cell_angle_gamma    90

_space_group_name_H-M_alt    "P 1"
_space_group_IT_number       1

loop_
  _space_group_symop_operation_xyz
  'x, y, z'

loop_
  _atom_site_type_symbol
  _atom_site_label
  _atom_site_symmetry_multiplicity
  _atom_site_fract_x
  _atom_site_fract_y
  _atom_site_fract_z
  _atom_site_occupancy
  C   C1        1.0  0.38680  0.80783  0.88710  1.0000
  C   C2        1.0  0.61320  0.30783  0.61290  1.0000
  C   C3        1.0  0.61320  0.19217  0.11290  1.0000
  C   C4        1.0  0.38680  0.69217  0.38710  1.0000
  C   C5        1.0  0.54480  0.77366  0.92890  1.0000
  C   C6        1.0  0.45520  0.27366  0.57110  1.0000
  C   C7        1.0  0.45520  0.22634  0.07110  1.0000
  C   C8        1.0  0.54480  0.72634  0.42890  1.0000
  C   C9        1.0  0.51780  0.74322  0.01240  1.0000
  C   C10       1.0  0.48220  0.24322  0.48760  1.0000
  C   C11       1.0  0.48220  0.25678  0.98760  1.0000
  C   C12       1.0  0.51780  0.75678  0.51240  1.0000
  H   H1        1.0  0.40020  0.74370  0.03980  1.0000
  H   H2        1.0  0.59980  0.24370  0.46020  1.0000
  H   H3        1.0  0.59980  0.25630  0.96020  1.0000
  H   H4        1.0  0.40020  0.75630  0.53980  1.0000
  C   C13       1.0  0.66420  0.71211  0.05530  1.0000
  C   C14       1.0  0.33580  0.21211  0.44470  1.0000
  C   C15       1.0  0.33580  0.28789  0.94470  1.0000
  C   C16       1.0  0.66420  0.78789  0.55530  1.0000
  H   H5        1.0  0.64430  0.69160  0.11060  1.0000
  H   H6        1.0  0.35570  0.19160  0.38940  1.0000
  H   H7        1.0  0.35570  0.30840  0.88940  1.0000
  H   H8        1.0  0.64430  0.80840  0.61060  1.0000
  C   C17       1.0  0.83960  0.71165  0.01560  1.0000
  C   C18       1.0  0.16040  0.21165  0.48440  1.0000
  C   C19       1.0  0.16040  0.28835  0.98440  1.0000
  C   C20       1.0  0.83960  0.78835  0.51560  1.0000
  C   C21       1.0  0.00800  0.67985  0.06440  1.0000
  C   C22       1.0  0.99200  0.17985  0.43560  1.0000
  C   C23       1.0  0.99200  0.32015  0.93560  1.0000
  C   C24       1.0  0.00800  0.82015  0.56440  1.0000
  C   C25       1.0  0.86500  0.74140  0.93050  1.0000
  C   C26       1.0  0.13500  0.24140  0.56950  1.0000
  C   C27       1.0  0.13500  0.25860  0.06950  1.0000
  C   C28       1.0  0.86500  0.75860  0.43050  1.0000
  H   H9        1.0  0.98140  0.74060  0.90190  1.0000
  H   H10       1.0  0.01860  0.24060  0.59810  1.0000
  H   H11       1.0  0.01860  0.25940  0.09810  1.0000
  H   H12       1.0  0.98140  0.75940  0.40190  1.0000
  C   C29       1.0  0.71860  0.77243  0.88760  1.0000
  C   C30       1.0  0.28140  0.27243  0.61240  1.0000
  C   C31       1.0  0.28140  0.22757  0.11240  1.0000
  C   C32       1.0  0.71860  0.72757  0.38760  1.0000
  H   H13       1.0  0.73740  0.79250  0.83080  1.0000
  H   H14       1.0  0.26260  0.29250  0.66920  1.0000
  H   H15       1.0  0.26260  0.20750  0.16920  1.0000
  H   H16       1.0  0.73740  0.70750  0.33080  1.0000
  C   C33       1.0  0.21400  0.93355  0.90650  1.0000
  C   C34       1.0  0.78600  0.43355  0.59350  1.0000
  C   C35       1.0  0.78600  0.06645  0.09350  1.0000
  C   C36       1.0  0.21400  0.56645  0.40650  1.0000
  C   C37       1.0  0.10110  0.96782  0.95440  1.0000
  C   C38       1.0  0.89890  0.46782  0.54560  1.0000
  C   C39       1.0  0.89890  0.03218  0.04560  1.0000
  C   C40       1.0  0.10110  0.53218  0.45440  1.0000
  C   C41       1.0  0.20750  0.99552  0.04360  1.0000
  C   C42       1.0  0.79250  0.49552  0.45640  1.0000
  C   C43       1.0  0.79250  0.00448  0.95640  1.0000
  C   C44       1.0  0.20750  0.50448  0.54360  1.0000
  H   H17       1.0  0.34790  0.99260  0.07340  1.0000
  H   H18       1.0  0.65210  0.49260  0.42660  1.0000
  H   H19       1.0  0.65210  0.00740  0.92660  1.0000
  H   H20       1.0  0.34790  0.50740  0.57340  1.0000
  C   C45       1.0  0.89240  0.97265  0.91130  1.0000
  C   C46       1.0  0.10760  0.47265  0.58870  1.0000
  C   C47       1.0  0.10760  0.02735  0.08870  1.0000
  C   C48       1.0  0.89240  0.52735  0.41130  1.0000
  H   H21       1.0  0.81900  0.95420  0.85140  1.0000
  H   H22       1.0  0.18100  0.45420  0.64860  1.0000
  H   H23       1.0  0.18100  0.04580  0.14860  1.0000
  H   H24       1.0  0.81900  0.54580  0.35140  1.0000
  C   C49       1.0  0.26730  0.93366  0.57820  1.0000
  C   C50       1.0  0.73270  0.43366  0.92180  1.0000
  C   C51       1.0  0.73270  0.06634  0.42180  1.0000
  C   C52       1.0  0.26730  0.56634  0.07820  1.0000
  C   C53       1.0  0.38910  0.96741  0.53770  1.0000
  C   C54       1.0  0.61090  0.46741  0.96230  1.0000
  C   C55       1.0  0.61090  0.03259  0.46230  1.0000
  C   C56       1.0  0.38910  0.53259  0.03770  1.0000
  C   C57       1.0  0.29010  0.00023  0.46210  1.0000
  C   C58       1.0  0.70990  0.50023  0.03790  1.0000
  C   C59       1.0  0.70990  0.99977  0.53790  1.0000
  C   C60       1.0  0.29010  0.49977  0.96210  1.0000
  H   H25       1.0  0.14860  0.00040  0.43610  1.0000
  H   H26       1.0  0.85140  0.50040  0.06390  1.0000
  H   H27       1.0  0.85140  0.99960  0.56390  1.0000
  H   H28       1.0  0.14860  0.49960  0.93610  1.0000
  C   C61       1.0  0.39890  0.03245  0.42520  1.0000
  C   C62       1.0  0.60110  0.53245  0.07480  1.0000
  C   C63       1.0  0.60110  0.96755  0.57480  1.0000
  C   C64       1.0  0.39890  0.46755  0.92520  1.0000
  H   H29       1.0  0.33040  0.05430  0.37520  1.0000
  H   H30       1.0  0.66960  0.55430  0.12480  1.0000
  H   H31       1.0  0.66960  0.94570  0.62480  1.0000
  H   H32       1.0  0.33040  0.44570  0.87520  1.0000
  Ga  Ga1       1.0  0.22016  0.87270  0.73555  1.0000
  Ga  Ga2       1.0  0.77984  0.37270  0.76445  1.0000
  Ga  Ga3       1.0  0.77984  0.12730  0.26445  1.0000
  Ga  Ga4       1.0  0.22016  0.62731  0.23555  1.0000
  O   O1        1.0  0.42350  0.83433  0.80710  1.0000
  O   O2        1.0  0.57650  0.33433  0.69290  1.0000
  O   O3        1.0  0.57650  0.16567  0.19290  1.0000
  O   O4        1.0  0.42350  0.66567  0.30710  1.0000
  O   O5        1.0  0.23470  0.80977  0.92490  1.0000
  O   O6        1.0  0.76530  0.30977  0.57510  1.0000
  O   O7        1.0  0.76530  0.19023  0.07510  1.0000
  O   O8        1.0  0.23470  0.69023  0.42490  1.0000
  O   O9        1.0  0.15100  0.67572  0.01980  1.0000
  O   O10       1.0  0.84900  0.17572  0.48020  1.0000
  O   O11       1.0  0.84900  0.32428  0.98020  1.0000
  O   O12       1.0  0.15100  0.82428  0.51980  1.0000
  O   O13       1.0  0.37160  0.90753  0.65980  1.0000
  O   O14       1.0  0.62840  0.40753  0.84020  1.0000
  O   O15       1.0  0.62840  0.09247  0.34020  1.0000
  O   O16       1.0  0.37160  0.59247  0.15980  1.0000
  O   O17       1.0  0.08400  0.93072  0.53720  1.0000
  O   O18       1.0  0.91600  0.43072  0.96280  1.0000
  O   O19       1.0  0.91600  0.06928  0.46280  1.0000
  O   O20       1.0  0.08400  0.56928  0.03720  1.0000
  O   O21       1.0  0.09900  0.90840  0.82620  1.0000
  O   O22       1.0  0.90100  0.40840  0.67380  1.0000
  O   O23       1.0  0.90100  0.09160  0.17380  1.0000
  O   O24       1.0  0.09900  0.59160  0.32620  1.0000
  O   O25       1.0  0.39750  0.93032  0.93970  1.0000
  O   O26       1.0  0.60250  0.43032  0.56030  1.0000
  O   O27       1.0  0.60250  0.06968  0.06030  1.0000
  O   O28       1.0  0.39750  0.56968  0.43970  1.0000
  O   O29       1.0  0.98980  0.65859  0.15900  1.0000
  O   O30       1.0  0.01020  0.15859  0.34100  1.0000
  O   O31       1.0  0.01020  0.34141  0.84100  1.0000
  O   O32       1.0  0.98980  0.84141  0.65900  1.0000
