data_image0
_chemical_formula_structural       Dy8Cl4O48C12H4C4H4C16H4C4H4C4H4C4H4C16H4C4H4C16H4C4H4C4H4C4H4C16H4C4H4C16H4C4H4C4H4C4H4C4
_chemical_formula_sum              "Dy8 Cl4 O48 C144 H72"
_cell_length_a       17.666
_cell_length_b       14.7812
_cell_length_c       15.8415
_cell_angle_alpha    90
_cell_angle_beta     94.3097
_cell_angle_gamma    90

_space_group_name_H-M_alt    "P 1"
_space_group_IT_number       1

loop_
  _space_group_symop_operation_xyz
  'x, y, z'

loop_
  _atom_site_type_symbol
  _atom_site_label
  _atom_site_symmetry_multiplicity
  _atom_site_fract_x
  _atom_site_fract_y
  _atom_site_fract_z
  _atom_site_occupancy
  Dy  Dy1       1.0  0.37844  0.02460  0.99584  1.0000
  Dy  Dy2       1.0  0.62156  0.52460  0.50416  1.0000
  Dy  Dy3       1.0  0.62156  0.97540  0.00416  1.0000
  Dy  Dy4       1.0  0.37844  0.47540  0.49584  1.0000
  Dy  Dy5       1.0  0.11750  0.01164  0.99874  1.0000
  Dy  Dy6       1.0  0.88250  0.51164  0.50126  1.0000
  Dy  Dy7       1.0  0.88250  0.98836  0.00126  1.0000
  Dy  Dy8       1.0  0.11750  0.48836  0.49874  1.0000
  Cl  Cl1       1.0  0.25226  0.91783  0.02562  1.0000
  Cl  Cl2       1.0  0.74774  0.41783  0.47438  1.0000
  Cl  Cl3       1.0  0.74774  0.08217  0.97438  1.0000
  Cl  Cl4       1.0  0.25226  0.58217  0.52562  1.0000
  O   O1        1.0  0.45051  0.12171  0.92240  1.0000
  O   O2        1.0  0.54949  0.62171  0.57760  1.0000
  O   O3        1.0  0.54949  0.87829  0.07760  1.0000
  O   O4        1.0  0.45051  0.37829  0.42240  1.0000
  O   O5        1.0  0.57552  0.10445  0.93437  1.0000
  O   O6        1.0  0.42448  0.60445  0.56563  1.0000
  O   O7        1.0  0.42448  0.89555  0.06563  1.0000
  O   O8        1.0  0.57552  0.39555  0.43437  1.0000
  O   O9        1.0  0.31561  0.12857  0.07354  1.0000
  O   O10       1.0  0.68439  0.62857  0.42646  1.0000
  O   O11       1.0  0.68439  0.87143  0.92646  1.0000
  O   O12       1.0  0.31561  0.37143  0.57354  1.0000
  O   O13       1.0  0.46946  0.42800  0.59722  1.0000
  O   O14       1.0  0.53054  0.92800  0.90278  1.0000
  O   O15       1.0  0.53054  0.57200  0.40278  1.0000
  O   O16       1.0  0.46946  0.07200  0.09722  1.0000
  O   O17       1.0  0.19261  0.13352  0.03156  1.0000
  O   O18       1.0  0.80739  0.63352  0.46844  1.0000
  O   O19       1.0  0.80739  0.86648  0.96844  1.0000
  O   O20       1.0  0.19261  0.36648  0.53156  1.0000
  O   O21       1.0  0.59467  0.43058  0.61382  1.0000
  O   O22       1.0  0.40533  0.93058  0.88618  1.0000
  O   O23       1.0  0.40533  0.56942  0.38618  1.0000
  O   O24       1.0  0.59467  0.06942  0.11382  1.0000
  O   O25       1.0  0.29141  0.42965  0.39060  1.0000
  O   O26       1.0  0.70859  0.92965  0.10940  1.0000
  O   O27       1.0  0.70859  0.57035  0.60940  1.0000
  O   O28       1.0  0.29141  0.07035  0.89060  1.0000
  O   O29       1.0  0.16738  0.45585  0.37016  1.0000
  O   O30       1.0  0.83262  0.95585  0.12984  1.0000
  O   O31       1.0  0.83262  0.54415  0.62984  1.0000
  O   O32       1.0  0.16738  0.04415  0.87016  1.0000
  O   O33       1.0  0.06125  0.08535  0.11076  1.0000
  O   O34       1.0  0.93875  0.58535  0.38924  1.0000
  O   O35       1.0  0.93875  0.91465  0.88924  1.0000
  O   O36       1.0  0.06125  0.41465  0.61076  1.0000
  O   O37       1.0  0.93590  0.09984  0.08676  1.0000
  O   O38       1.0  0.06410  0.59984  0.41324  1.0000
  O   O39       1.0  0.06410  0.90016  0.91324  1.0000
  O   O40       1.0  0.93590  0.40016  0.58676  1.0000
  O   O41       1.0  0.02046  0.40846  0.43551  1.0000
  O   O42       1.0  0.97954  0.90846  0.06449  1.0000
  O   O43       1.0  0.97954  0.59154  0.56449  1.0000
  O   O44       1.0  0.02046  0.09154  0.93551  1.0000
  O   O45       1.0  0.89873  0.40216  0.39529  1.0000
  O   O46       1.0  0.10127  0.90216  0.10471  1.0000
  O   O47       1.0  0.10127  0.59784  0.60471  1.0000
  O   O48       1.0  0.89873  0.09784  0.89529  1.0000
  C   C1        1.0  0.51570  0.14160  0.90510  1.0000
  C   C2        1.0  0.48430  0.64160  0.59490  1.0000
  C   C3        1.0  0.48430  0.85840  0.09490  1.0000
  C   C4        1.0  0.51570  0.35840  0.40510  1.0000
  C   C5        1.0  0.52250  0.21550  0.84020  1.0000
  C   C6        1.0  0.47750  0.71550  0.65980  1.0000
  C   C7        1.0  0.47750  0.78450  0.15980  1.0000
  C   C8        1.0  0.52250  0.28450  0.34020  1.0000
  C   C9        1.0  0.47150  0.21330  0.77010  1.0000
  C   C10       1.0  0.52850  0.71330  0.72990  1.0000
  C   C11       1.0  0.52850  0.78670  0.22990  1.0000
  C   C12       1.0  0.47150  0.28670  0.27010  1.0000
  H   H1        1.0  0.43430  0.16870  0.76530  1.0000
  H   H2        1.0  0.56570  0.66870  0.73470  1.0000
  H   H3        1.0  0.56570  0.83130  0.23470  1.0000
  H   H4        1.0  0.43430  0.33130  0.26530  1.0000
  C   C13       1.0  0.47540  0.27800  0.70580  1.0000
  C   C14       1.0  0.52460  0.77800  0.79420  1.0000
  C   C15       1.0  0.52460  0.72200  0.29420  1.0000
  C   C16       1.0  0.47540  0.22200  0.20580  1.0000
  H   H5        1.0  0.44090  0.27500  0.65850  1.0000
  H   H6        1.0  0.55910  0.77500  0.84150  1.0000
  H   H7        1.0  0.55910  0.72500  0.34150  1.0000
  H   H8        1.0  0.44090  0.22500  0.15850  1.0000
  C   C17       1.0  0.52840  0.34510  0.71080  1.0000
  C   C18       1.0  0.47160  0.84510  0.78920  1.0000
  C   C19       1.0  0.47160  0.65490  0.28920  1.0000
  C   C20       1.0  0.52840  0.15490  0.21080  1.0000
  C   C21       1.0  0.58040  0.35260  0.78400  1.0000
  C   C22       1.0  0.41960  0.85260  0.71600  1.0000
  C   C23       1.0  0.41960  0.64740  0.21600  1.0000
  C   C24       1.0  0.58040  0.14740  0.28400  1.0000
  C   C25       1.0  0.57770  0.28570  0.84910  1.0000
  C   C26       1.0  0.42230  0.78570  0.65090  1.0000
  C   C27       1.0  0.42230  0.71430  0.15090  1.0000
  C   C28       1.0  0.57770  0.21430  0.34910  1.0000
  C   C29       1.0  0.62930  0.29360  0.92140  1.0000
  C   C30       1.0  0.37070  0.79360  0.57860  1.0000
  C   C31       1.0  0.37070  0.70640  0.07860  1.0000
  C   C32       1.0  0.62930  0.20640  0.42140  1.0000
  H   H9        1.0  0.62980  0.24940  0.96320  1.0000
  H   H10       1.0  0.37020  0.74940  0.53680  1.0000
  H   H11       1.0  0.37020  0.75060  0.03680  1.0000
  H   H12       1.0  0.62980  0.25060  0.46320  1.0000
  C   C33       1.0  0.67840  0.36490  0.93100  1.0000
  C   C34       1.0  0.32160  0.86490  0.56900  1.0000
  C   C35       1.0  0.32160  0.63510  0.06900  1.0000
  C   C36       1.0  0.67840  0.13510  0.43100  1.0000
  H   H13       1.0  0.71140  0.36900  0.97940  1.0000
  H   H14       1.0  0.28860  0.86900  0.52060  1.0000
  H   H15       1.0  0.28860  0.63100  0.02060  1.0000
  H   H16       1.0  0.71140  0.13100  0.47940  1.0000
  C   C37       1.0  0.67930  0.43110  0.86900  1.0000
  C   C38       1.0  0.32070  0.93110  0.63100  1.0000
  C   C39       1.0  0.32070  0.56890  0.13100  1.0000
  C   C40       1.0  0.67930  0.06890  0.36900  1.0000
  H   H17       1.0  0.71250  0.47980  0.87670  1.0000
  H   H18       1.0  0.28750  0.97980  0.62330  1.0000
  H   H19       1.0  0.28750  0.52020  0.12330  1.0000
  H   H20       1.0  0.71250  0.02020  0.37670  1.0000
  C   C41       1.0  0.63200  0.42580  0.79630  1.0000
  C   C42       1.0  0.36800  0.92580  0.70370  1.0000
  C   C43       1.0  0.36800  0.57420  0.20370  1.0000
  C   C44       1.0  0.63200  0.07420  0.29630  1.0000
  H   H21       1.0  0.63380  0.47030  0.75500  1.0000
  H   H22       1.0  0.36620  0.97030  0.74500  1.0000
  H   H23       1.0  0.36620  0.52970  0.24500  1.0000
  H   H24       1.0  0.63380  0.02970  0.25500  1.0000
  C   C45       1.0  0.53110  0.40650  0.63560  1.0000
  C   C46       1.0  0.46890  0.90650  0.86440  1.0000
  C   C47       1.0  0.46890  0.59350  0.36440  1.0000
  C   C48       1.0  0.53110  0.09350  0.13560  1.0000
  C   C49       1.0  0.24960  0.16050  0.07680  1.0000
  C   C50       1.0  0.75040  0.66050  0.42320  1.0000
  C   C51       1.0  0.75040  0.83950  0.92320  1.0000
  C   C52       1.0  0.24960  0.33950  0.57680  1.0000
  C   C53       1.0  0.23980  0.23240  0.14180  1.0000
  C   C54       1.0  0.76020  0.73240  0.35820  1.0000
  C   C55       1.0  0.76020  0.76760  0.85820  1.0000
  C   C56       1.0  0.23980  0.26760  0.64180  1.0000
  C   C57       1.0  0.28320  0.22510  0.21650  1.0000
  C   C58       1.0  0.71680  0.72510  0.28350  1.0000
  C   C59       1.0  0.71680  0.77490  0.78350  1.0000
  C   C60       1.0  0.28320  0.27490  0.71650  1.0000
  H   H25       1.0  0.31730  0.17730  0.22370  1.0000
  H   H26       1.0  0.68270  0.67730  0.27630  1.0000
  H   H27       1.0  0.68270  0.82270  0.77630  1.0000
  H   H28       1.0  0.31730  0.32270  0.72370  1.0000
  C   C61       1.0  0.27810  0.28630  0.28210  1.0000
  C   C62       1.0  0.72190  0.78630  0.21790  1.0000
  C   C63       1.0  0.72190  0.71370  0.71790  1.0000
  C   C64       1.0  0.27810  0.21370  0.78210  1.0000
  H   H29       1.0  0.30950  0.27950  0.33150  1.0000
  H   H30       1.0  0.69050  0.77950  0.16850  1.0000
  H   H31       1.0  0.69050  0.72050  0.66850  1.0000
  H   H32       1.0  0.30950  0.22050  0.83150  1.0000
  C   C65       1.0  0.22700  0.35730  0.27510  1.0000
  C   C66       1.0  0.77300  0.85730  0.22490  1.0000
  C   C67       1.0  0.77300  0.64270  0.72490  1.0000
  C   C68       1.0  0.22700  0.14270  0.77510  1.0000
  C   C69       1.0  0.17990  0.36770  0.19840  1.0000
  C   C70       1.0  0.82010  0.86770  0.30160  1.0000
  C   C71       1.0  0.82010  0.63230  0.80160  1.0000
  C   C72       1.0  0.17990  0.13230  0.69840  1.0000
  C   C73       1.0  0.18780  0.30610  0.13060  1.0000
  C   C74       1.0  0.81220  0.80610  0.36940  1.0000
  C   C75       1.0  0.81220  0.69390  0.86940  1.0000
  C   C76       1.0  0.18780  0.19390  0.63060  1.0000
  C   C77       1.0  0.14410  0.32190  0.05290  1.0000
  C   C78       1.0  0.85590  0.82190  0.44710  1.0000
  C   C79       1.0  0.85590  0.67810  0.94710  1.0000
  C   C80       1.0  0.14410  0.17810  0.55290  1.0000
  H   H33       1.0  0.14900  0.28290  0.00760  1.0000
  H   H34       1.0  0.85100  0.78290  0.49240  1.0000
  H   H35       1.0  0.85100  0.71710  0.99240  1.0000
  H   H36       1.0  0.14900  0.21710  0.50760  1.0000
  C   C81       1.0  0.09540  0.39300  0.04370  1.0000
  C   C82       1.0  0.90460  0.89300  0.45630  1.0000
  C   C83       1.0  0.90460  0.60700  0.95630  1.0000
  C   C84       1.0  0.09540  0.10700  0.54370  1.0000
  H   H37       1.0  0.06760  0.40230  0.99220  1.0000
  H   H38       1.0  0.93240  0.90230  0.50780  1.0000
  H   H39       1.0  0.93240  0.59770  0.00780  1.0000
  H   H40       1.0  0.06760  0.09770  0.49220  1.0000
  C   C85       1.0  0.08690  0.45200  0.11080  1.0000
  C   C86       1.0  0.91310  0.95200  0.38920  1.0000
  C   C87       1.0  0.91310  0.54800  0.88920  1.0000
  C   C88       1.0  0.08690  0.04800  0.61080  1.0000
  H   H41       1.0  0.05300  0.50010  0.10400  1.0000
  H   H42       1.0  0.94700  0.00010  0.39600  1.0000
  H   H43       1.0  0.94700  0.49990  0.89600  1.0000
  H   H44       1.0  0.05300  0.99990  0.60400  1.0000
  C   C89       1.0  0.12710  0.44000  0.18570  1.0000
  C   C90       1.0  0.87290  0.94000  0.31430  1.0000
  C   C91       1.0  0.87290  0.56000  0.81430  1.0000
  C   C92       1.0  0.12710  0.06000  0.68570  1.0000
  H   H45       1.0  0.12030  0.47980  0.22990  1.0000
  H   H46       1.0  0.87970  0.97980  0.27010  1.0000
  H   H47       1.0  0.87970  0.52020  0.77010  1.0000
  H   H48       1.0  0.12030  0.02020  0.72990  1.0000
  C   C93       1.0  0.22810  0.41990  0.35140  1.0000
  C   C94       1.0  0.77190  0.91990  0.14860  1.0000
  C   C95       1.0  0.77190  0.58010  0.64860  1.0000
  C   C96       1.0  0.22810  0.08010  0.85140  1.0000
  C   C97       1.0  0.00020  0.12300  0.12040  1.0000
  C   C98       1.0  0.99980  0.62300  0.37960  1.0000
  C   C99       1.0  0.99980  0.87700  0.87960  1.0000
  C   C100      1.0  0.00020  0.37700  0.62040  1.0000
  C   C101      1.0  0.99970  0.20140  0.18120  1.0000
  C   C102      1.0  0.00030  0.70140  0.31880  1.0000
  C   C103      1.0  0.00030  0.79860  0.81880  1.0000
  C   C104      1.0  0.99970  0.29860  0.68120  1.0000
  C   C105      1.0  0.04030  0.19310  0.25760  1.0000
  C   C106      1.0  0.95970  0.69310  0.24240  1.0000
  C   C107      1.0  0.95970  0.80690  0.74240  1.0000
  C   C108      1.0  0.04030  0.30690  0.75760  1.0000
  H   H49       1.0  0.07350  0.14470  0.26700  1.0000
  H   H50       1.0  0.92650  0.64470  0.23300  1.0000
  H   H51       1.0  0.92650  0.85530  0.73300  1.0000
  H   H52       1.0  0.07350  0.35530  0.76700  1.0000
  C   C109      1.0  0.03270  0.25670  0.32230  1.0000
  C   C110      1.0  0.96730  0.75670  0.17770  1.0000
  C   C111      1.0  0.96730  0.74330  0.67770  1.0000
  C   C112      1.0  0.03270  0.24330  0.82230  1.0000
  H   H53       1.0  0.06110  0.25040  0.37370  1.0000
  H   H54       1.0  0.93890  0.75040  0.12630  1.0000
  H   H55       1.0  0.93890  0.74960  0.62630  1.0000
  H   H56       1.0  0.06110  0.24960  0.87370  1.0000
  C   C113      1.0  0.98340  0.32830  0.31000  1.0000
  C   C114      1.0  0.01660  0.82830  0.19000  1.0000
  C   C115      1.0  0.01660  0.67170  0.69000  1.0000
  C   C116      1.0  0.98340  0.17170  0.81000  1.0000
  C   C117      1.0  0.94620  0.34470  0.22830  1.0000
  C   C118      1.0  0.05380  0.84470  0.27170  1.0000
  C   C119      1.0  0.05380  0.65530  0.77170  1.0000
  C   C120      1.0  0.94620  0.15530  0.72830  1.0000
  C   C121      1.0  0.95440  0.27990  0.16370  1.0000
  C   C122      1.0  0.04560  0.77990  0.33630  1.0000
  C   C123      1.0  0.04560  0.72010  0.83630  1.0000
  C   C124      1.0  0.95440  0.22010  0.66370  1.0000
  C   C125      1.0  0.91930  0.29770  0.08130  1.0000
  C   C126      1.0  0.08070  0.79770  0.41870  1.0000
  C   C127      1.0  0.08070  0.70230  0.91870  1.0000
  C   C128      1.0  0.91930  0.20230  0.58130  1.0000
  H   H57       1.0  0.92320  0.25590  0.03800  1.0000
  H   H58       1.0  0.07680  0.75590  0.46200  1.0000
  H   H59       1.0  0.07680  0.74410  0.96200  1.0000
  H   H60       1.0  0.92320  0.24410  0.53800  1.0000
  C   C129      1.0  0.88000  0.37640  0.06620  1.0000
  C   C130      1.0  0.12000  0.87640  0.43380  1.0000
  C   C131      1.0  0.12000  0.62360  0.93380  1.0000
  C   C132      1.0  0.88000  0.12360  0.56620  1.0000
  H   H61       1.0  0.85780  0.38780  0.01210  1.0000
  H   H62       1.0  0.14220  0.88780  0.48790  1.0000
  H   H63       1.0  0.14220  0.61220  0.98790  1.0000
  H   H64       1.0  0.85780  0.11220  0.51210  1.0000
  C   C133      1.0  0.87230  0.44000  0.13000  1.0000
  C   C134      1.0  0.12770  0.94000  0.37000  1.0000
  C   C135      1.0  0.12770  0.56000  0.87000  1.0000
  C   C136      1.0  0.87230  0.06000  0.63000  1.0000
  H   H65       1.0  0.84590  0.49340  0.11790  1.0000
  H   H66       1.0  0.15410  0.99340  0.38210  1.0000
  H   H67       1.0  0.15410  0.50660  0.88210  1.0000
  H   H68       1.0  0.84590  0.00660  0.61790  1.0000
  C   C137      1.0  0.90310  0.42450  0.20970  1.0000
  C   C138      1.0  0.09690  0.92450  0.29030  1.0000
  C   C139      1.0  0.09690  0.57550  0.79030  1.0000
  C   C140      1.0  0.90310  0.07550  0.70970  1.0000
  H   H69       1.0  0.89600  0.46610  0.25240  1.0000
  H   H70       1.0  0.10400  0.96610  0.24760  1.0000
  H   H71       1.0  0.10400  0.53390  0.74760  1.0000
  H   H72       1.0  0.89600  0.03390  0.75240  1.0000
  C   C141      1.0  0.96710  0.38430  0.38520  1.0000
  C   C142      1.0  0.03290  0.88430  0.11480  1.0000
  C   C143      1.0  0.03290  0.61570  0.61480  1.0000
  C   C144      1.0  0.96710  0.11570  0.88520  1.0000
