data_image0
_chemical_formula_structural       Y8Cl4O48C12H4C4H4C16H4C4H4C4H4C4H4C16H4C4H4C16H4C4H4C4H4C4H4C16H4C4H4C16H4C4H4C4H4C4H4C4
_chemical_formula_sum              "Y8 Cl4 O48 C144 H72"
_cell_length_a       17.6892
_cell_length_b       14.7676
_cell_length_c       15.84
_cell_angle_alpha    90
_cell_angle_beta     94.1242
_cell_angle_gamma    90

_space_group_name_H-M_alt    "P 1"
_space_group_IT_number       1

loop_
  _space_group_symop_operation_xyz
  'x, y, z'

loop_
  _atom_site_type_symbol
  _atom_site_label
  _atom_site_symmetry_multiplicity
  _atom_site_fract_x
  _atom_site_fract_y
  _atom_site_fract_z
  _atom_site_occupancy
  Y   Y1        1.0  0.37866  0.02467  0.99611  1.0000
  Y   Y2        1.0  0.62134  0.52467  0.50389  1.0000
  Y   Y3        1.0  0.62134  0.97533  0.00389  1.0000
  Y   Y4        1.0  0.37866  0.47533  0.49611  1.0000
  Y   Y5        1.0  0.11774  0.01193  0.99864  1.0000
  Y   Y6        1.0  0.88226  0.51193  0.50136  1.0000
  Y   Y7        1.0  0.88226  0.98807  0.00136  1.0000
  Y   Y8        1.0  0.11774  0.48807  0.49864  1.0000
  Cl  Cl1       1.0  0.25234  0.91853  0.02692  1.0000
  Cl  Cl2       1.0  0.74766  0.41853  0.47308  1.0000
  Cl  Cl3       1.0  0.74766  0.08147  0.97308  1.0000
  Cl  Cl4       1.0  0.25234  0.58147  0.52692  1.0000
  O   O1        1.0  0.45068  0.12020  0.92230  1.0000
  O   O2        1.0  0.54932  0.62020  0.57770  1.0000
  O   O3        1.0  0.54932  0.87980  0.07770  1.0000
  O   O4        1.0  0.45068  0.37980  0.42230  1.0000
  O   O5        1.0  0.57641  0.10300  0.93280  1.0000
  O   O6        1.0  0.42359  0.60300  0.56720  1.0000
  O   O7        1.0  0.42359  0.89700  0.06720  1.0000
  O   O8        1.0  0.57641  0.39700  0.43280  1.0000
  O   O9        1.0  0.31568  0.12780  0.07340  1.0000
  O   O10       1.0  0.68432  0.62780  0.42660  1.0000
  O   O11       1.0  0.68432  0.87220  0.92660  1.0000
  O   O12       1.0  0.31568  0.37220  0.57340  1.0000
  O   O13       1.0  0.46850  0.42660  0.59600  1.0000
  O   O14       1.0  0.53150  0.92660  0.90400  1.0000
  O   O15       1.0  0.53150  0.57340  0.40400  1.0000
  O   O16       1.0  0.46850  0.07340  0.09600  1.0000
  O   O17       1.0  0.19248  0.13240  0.03290  1.0000
  O   O18       1.0  0.80752  0.63240  0.46710  1.0000
  O   O19       1.0  0.80752  0.86760  0.96710  1.0000
  O   O20       1.0  0.19248  0.36760  0.53290  1.0000
  O   O21       1.0  0.59417  0.43010  0.61180  1.0000
  O   O22       1.0  0.40583  0.93010  0.88820  1.0000
  O   O23       1.0  0.40583  0.56990  0.38820  1.0000
  O   O24       1.0  0.59417  0.06990  0.11180  1.0000
  O   O25       1.0  0.29285  0.42910  0.39158  1.0000
  O   O26       1.0  0.70715  0.92910  0.10842  1.0000
  O   O27       1.0  0.70715  0.57090  0.60842  1.0000
  O   O28       1.0  0.29285  0.07090  0.89158  1.0000
  O   O29       1.0  0.16853  0.45640  0.37114  1.0000
  O   O30       1.0  0.83147  0.95640  0.12886  1.0000
  O   O31       1.0  0.83147  0.54360  0.62886  1.0000
  O   O32       1.0  0.16853  0.04360  0.87114  1.0000
  O   O33       1.0  0.06125  0.08390  0.10973  1.0000
  O   O34       1.0  0.93875  0.58390  0.39027  1.0000
  O   O35       1.0  0.93875  0.91610  0.89027  1.0000
  O   O36       1.0  0.06125  0.41610  0.60973  1.0000
  O   O37       1.0  0.93506  0.09940  0.08571  1.0000
  O   O38       1.0  0.06494  0.59940  0.41429  1.0000
  O   O39       1.0  0.06494  0.90060  0.91429  1.0000
  O   O40       1.0  0.93506  0.40060  0.58571  1.0000
  O   O41       1.0  0.02303  0.40710  0.43530  1.0000
  O   O42       1.0  0.97697  0.90710  0.06470  1.0000
  O   O43       1.0  0.97697  0.59290  0.56470  1.0000
  O   O44       1.0  0.02303  0.09290  0.93530  1.0000
  O   O45       1.0  0.90074  0.40230  0.39700  1.0000
  O   O46       1.0  0.09926  0.90230  0.10300  1.0000
  O   O47       1.0  0.09926  0.59770  0.60300  1.0000
  O   O48       1.0  0.90074  0.09770  0.89700  1.0000
  C   C1        1.0  0.51610  0.14110  0.90380  1.0000
  C   C2        1.0  0.48390  0.64110  0.59620  1.0000
  C   C3        1.0  0.48390  0.85890  0.09620  1.0000
  C   C4        1.0  0.51610  0.35890  0.40380  1.0000
  C   C5        1.0  0.52220  0.21440  0.83920  1.0000
  C   C6        1.0  0.47780  0.71440  0.66080  1.0000
  C   C7        1.0  0.47780  0.78560  0.16080  1.0000
  C   C8        1.0  0.52220  0.28560  0.33920  1.0000
  C   C9        1.0  0.47220  0.21230  0.76940  1.0000
  C   C10       1.0  0.52780  0.71230  0.73060  1.0000
  C   C11       1.0  0.52780  0.78770  0.23060  1.0000
  C   C12       1.0  0.47220  0.28770  0.26940  1.0000
  H   H1        1.0  0.43520  0.16750  0.76500  1.0000
  H   H2        1.0  0.56480  0.66750  0.73500  1.0000
  H   H3        1.0  0.56480  0.83250  0.23500  1.0000
  H   H4        1.0  0.43520  0.33250  0.26500  1.0000
  C   C13       1.0  0.47540  0.27590  0.70450  1.0000
  C   C14       1.0  0.52460  0.77590  0.79550  1.0000
  C   C15       1.0  0.52460  0.72410  0.29550  1.0000
  C   C16       1.0  0.47540  0.22410  0.20450  1.0000
  H   H5        1.0  0.44110  0.27210  0.65720  1.0000
  H   H6        1.0  0.55890  0.77210  0.84280  1.0000
  H   H7        1.0  0.55890  0.72790  0.34280  1.0000
  H   H8        1.0  0.44110  0.22790  0.15720  1.0000
  C   C17       1.0  0.52840  0.34380  0.70950  1.0000
  C   C18       1.0  0.47160  0.84380  0.79050  1.0000
  C   C19       1.0  0.47160  0.65620  0.29050  1.0000
  C   C20       1.0  0.52840  0.15620  0.20950  1.0000
  C   C21       1.0  0.57980  0.35110  0.78230  1.0000
  C   C22       1.0  0.42020  0.85110  0.71770  1.0000
  C   C23       1.0  0.42020  0.64890  0.21770  1.0000
  C   C24       1.0  0.57980  0.14890  0.28230  1.0000
  C   C25       1.0  0.57760  0.28480  0.84770  1.0000
  C   C26       1.0  0.42240  0.78480  0.65230  1.0000
  C   C27       1.0  0.42240  0.71520  0.15230  1.0000
  C   C28       1.0  0.57760  0.21520  0.34770  1.0000
  C   C29       1.0  0.62820  0.29400  0.92070  1.0000
  C   C30       1.0  0.37180  0.79400  0.57930  1.0000
  C   C31       1.0  0.37180  0.70600  0.07930  1.0000
  C   C32       1.0  0.62820  0.20600  0.42070  1.0000
  H   H9        1.0  0.62820  0.25070  0.96330  1.0000
  H   H10       1.0  0.37180  0.75070  0.53670  1.0000
  H   H11       1.0  0.37180  0.74930  0.03670  1.0000
  H   H12       1.0  0.62820  0.24930  0.46330  1.0000
  C   C33       1.0  0.67680  0.36560  0.92930  1.0000
  C   C34       1.0  0.32320  0.86560  0.57070  1.0000
  C   C35       1.0  0.32320  0.63440  0.07070  1.0000
  C   C36       1.0  0.67680  0.13440  0.42930  1.0000
  H   H13       1.0  0.71000  0.37020  0.97740  1.0000
  H   H14       1.0  0.29000  0.87020  0.52260  1.0000
  H   H15       1.0  0.29000  0.62980  0.02260  1.0000
  H   H16       1.0  0.71000  0.12980  0.47740  1.0000
  C   C37       1.0  0.67740  0.43200  0.86680  1.0000
  C   C38       1.0  0.32260  0.93200  0.63320  1.0000
  C   C39       1.0  0.32260  0.56800  0.13320  1.0000
  C   C40       1.0  0.67740  0.06800  0.36680  1.0000
  H   H17       1.0  0.70980  0.48140  0.87430  1.0000
  H   H18       1.0  0.29020  0.98140  0.62570  1.0000
  H   H19       1.0  0.29020  0.51860  0.12570  1.0000
  H   H20       1.0  0.70980  0.01860  0.37430  1.0000
  C   C41       1.0  0.63120  0.42540  0.79530  1.0000
  C   C42       1.0  0.36880  0.92540  0.70470  1.0000
  C   C43       1.0  0.36880  0.57460  0.20470  1.0000
  C   C44       1.0  0.63120  0.07460  0.29530  1.0000
  H   H21       1.0  0.63300  0.46980  0.75380  1.0000
  H   H22       1.0  0.36700  0.96980  0.74620  1.0000
  H   H23       1.0  0.36700  0.53020  0.24620  1.0000
  H   H24       1.0  0.63300  0.03020  0.25380  1.0000
  C   C45       1.0  0.53090  0.40510  0.63400  1.0000
  C   C46       1.0  0.46910  0.90510  0.86600  1.0000
  C   C47       1.0  0.46910  0.59490  0.36600  1.0000
  C   C48       1.0  0.53090  0.09490  0.13400  1.0000
  C   C49       1.0  0.24980  0.15980  0.07770  1.0000
  C   C50       1.0  0.75020  0.65980  0.42230  1.0000
  C   C51       1.0  0.75020  0.84020  0.92230  1.0000
  C   C52       1.0  0.24980  0.34020  0.57770  1.0000
  C   C53       1.0  0.24050  0.23240  0.14190  1.0000
  C   C54       1.0  0.75950  0.73240  0.35810  1.0000
  C   C55       1.0  0.75950  0.76760  0.85810  1.0000
  C   C56       1.0  0.24050  0.26760  0.64190  1.0000
  C   C57       1.0  0.28320  0.22440  0.21740  1.0000
  C   C58       1.0  0.71680  0.72440  0.28260  1.0000
  C   C59       1.0  0.71680  0.77560  0.78260  1.0000
  C   C60       1.0  0.28320  0.27560  0.71740  1.0000
  H   H25       1.0  0.31680  0.17610  0.22490  1.0000
  H   H26       1.0  0.68320  0.67610  0.27510  1.0000
  H   H27       1.0  0.68320  0.82390  0.77510  1.0000
  H   H28       1.0  0.31680  0.32390  0.72490  1.0000
  C   C61       1.0  0.27810  0.28610  0.28280  1.0000
  C   C62       1.0  0.72190  0.78610  0.21720  1.0000
  C   C63       1.0  0.72190  0.71390  0.71720  1.0000
  C   C64       1.0  0.27810  0.21390  0.78280  1.0000
  H   H29       1.0  0.30900  0.27910  0.33230  1.0000
  H   H30       1.0  0.69100  0.77910  0.16770  1.0000
  H   H31       1.0  0.69100  0.72090  0.66770  1.0000
  H   H32       1.0  0.30900  0.22090  0.83230  1.0000
  C   C65       1.0  0.22790  0.35760  0.27570  1.0000
  C   C66       1.0  0.77210  0.85760  0.22430  1.0000
  C   C67       1.0  0.77210  0.64240  0.72430  1.0000
  C   C68       1.0  0.22790  0.14240  0.77570  1.0000
  C   C69       1.0  0.18070  0.36750  0.19970  1.0000
  C   C70       1.0  0.81930  0.86750  0.30030  1.0000
  C   C71       1.0  0.81930  0.63250  0.80030  1.0000
  C   C72       1.0  0.18070  0.13250  0.69970  1.0000
  C   C73       1.0  0.18740  0.30600  0.13170  1.0000
  C   C74       1.0  0.81260  0.80600  0.36830  1.0000
  C   C75       1.0  0.81260  0.69400  0.86830  1.0000
  C   C76       1.0  0.18740  0.19400  0.63170  1.0000
  C   C77       1.0  0.14460  0.32120  0.05400  1.0000
  C   C78       1.0  0.85540  0.82120  0.44600  1.0000
  C   C79       1.0  0.85540  0.67880  0.94600  1.0000
  C   C80       1.0  0.14460  0.17880  0.55400  1.0000
  H   H33       1.0  0.14980  0.28250  0.00850  1.0000
  H   H34       1.0  0.85020  0.78250  0.49150  1.0000
  H   H35       1.0  0.85020  0.71750  0.99150  1.0000
  H   H36       1.0  0.14980  0.21750  0.50850  1.0000
  C   C81       1.0  0.09570  0.39290  0.04570  1.0000
  C   C82       1.0  0.90430  0.89290  0.45430  1.0000
  C   C83       1.0  0.90430  0.60710  0.95430  1.0000
  C   C84       1.0  0.09570  0.10710  0.54570  1.0000
  H   H37       1.0  0.06780  0.40220  0.99440  1.0000
  H   H38       1.0  0.93220  0.90220  0.50560  1.0000
  H   H39       1.0  0.93220  0.59780  0.00560  1.0000
  H   H40       1.0  0.06780  0.09780  0.49440  1.0000
  C   C85       1.0  0.08680  0.45210  0.11260  1.0000
  C   C86       1.0  0.91320  0.95210  0.38740  1.0000
  C   C87       1.0  0.91320  0.54790  0.88740  1.0000
  C   C88       1.0  0.08680  0.04790  0.61260  1.0000
  H   H41       1.0  0.05290  0.50010  0.10570  1.0000
  H   H42       1.0  0.94710  0.00010  0.39430  1.0000
  H   H43       1.0  0.94710  0.49990  0.89430  1.0000
  H   H44       1.0  0.05290  0.99990  0.60570  1.0000
  C   C89       1.0  0.12740  0.44030  0.18790  1.0000
  C   C90       1.0  0.87260  0.94030  0.31210  1.0000
  C   C91       1.0  0.87260  0.55970  0.81210  1.0000
  C   C92       1.0  0.12740  0.05970  0.68790  1.0000
  H   H45       1.0  0.12050  0.48000  0.23230  1.0000
  H   H46       1.0  0.87950  0.98000  0.26770  1.0000
  H   H47       1.0  0.87950  0.52000  0.76770  1.0000
  H   H48       1.0  0.12050  0.02000  0.73230  1.0000
  C   C93       1.0  0.22930  0.41930  0.35150  1.0000
  C   C94       1.0  0.77070  0.91930  0.14850  1.0000
  C   C95       1.0  0.77070  0.58070  0.64850  1.0000
  C   C96       1.0  0.22930  0.08070  0.85150  1.0000
  C   C97       1.0  0.99980  0.12300  0.12040  1.0000
  C   C98       1.0  0.00020  0.62300  0.37960  1.0000
  C   C99       1.0  0.00020  0.87700  0.87960  1.0000
  C   C100      1.0  0.99980  0.37700  0.62040  1.0000
  C   C101      1.0  0.99910  0.20090  0.18120  1.0000
  C   C102      1.0  0.00090  0.70090  0.31880  1.0000
  C   C103      1.0  0.00090  0.79910  0.81880  1.0000
  C   C104      1.0  0.99910  0.29910  0.68120  1.0000
  C   C105      1.0  0.04000  0.19270  0.25720  1.0000
  C   C106      1.0  0.96000  0.69270  0.24280  1.0000
  C   C107      1.0  0.96000  0.80730  0.74280  1.0000
  C   C108      1.0  0.04000  0.30730  0.75720  1.0000
  H   H49       1.0  0.07330  0.14430  0.26620  1.0000
  H   H50       1.0  0.92670  0.64430  0.23380  1.0000
  H   H51       1.0  0.92670  0.85570  0.73380  1.0000
  H   H52       1.0  0.07330  0.35570  0.76620  1.0000
  C   C109      1.0  0.03290  0.25580  0.32160  1.0000
  C   C110      1.0  0.96710  0.75580  0.17840  1.0000
  C   C111      1.0  0.96710  0.74420  0.67840  1.0000
  C   C112      1.0  0.03290  0.24420  0.82160  1.0000
  H   H53       1.0  0.06170  0.24930  0.37270  1.0000
  H   H54       1.0  0.93830  0.74930  0.12730  1.0000
  H   H55       1.0  0.93830  0.75070  0.62730  1.0000
  H   H56       1.0  0.06170  0.25070  0.87270  1.0000
  C   C113      1.0  0.98370  0.32730  0.31010  1.0000
  C   C114      1.0  0.01630  0.82730  0.18990  1.0000
  C   C115      1.0  0.01630  0.67270  0.68990  1.0000
  C   C116      1.0  0.98370  0.17270  0.81010  1.0000
  C   C117      1.0  0.94640  0.34370  0.22910  1.0000
  C   C118      1.0  0.05360  0.84370  0.27090  1.0000
  C   C119      1.0  0.05360  0.65630  0.77090  1.0000
  C   C120      1.0  0.94640  0.15630  0.72910  1.0000
  C   C121      1.0  0.95370  0.27930  0.16410  1.0000
  C   C122      1.0  0.04630  0.77930  0.33590  1.0000
  C   C123      1.0  0.04630  0.72070  0.83590  1.0000
  C   C124      1.0  0.95370  0.22070  0.66410  1.0000
  C   C125      1.0  0.91860  0.29860  0.08260  1.0000
  C   C126      1.0  0.08140  0.79860  0.41740  1.0000
  C   C127      1.0  0.08140  0.70140  0.91740  1.0000
  C   C128      1.0  0.91860  0.20140  0.58260  1.0000
  H   H57       1.0  0.92190  0.25700  0.03890  1.0000
  H   H58       1.0  0.07810  0.75700  0.46110  1.0000
  H   H59       1.0  0.07810  0.74300  0.96110  1.0000
  H   H60       1.0  0.92190  0.24300  0.53890  1.0000
  C   C129      1.0  0.88000  0.37740  0.06790  1.0000
  C   C130      1.0  0.12000  0.87740  0.43210  1.0000
  C   C131      1.0  0.12000  0.62260  0.93210  1.0000
  C   C132      1.0  0.88000  0.12260  0.56790  1.0000
  H   H61       1.0  0.85830  0.38940  0.01390  1.0000
  H   H62       1.0  0.14170  0.88940  0.48610  1.0000
  H   H63       1.0  0.14170  0.61060  0.98610  1.0000
  H   H64       1.0  0.85830  0.11060  0.51390  1.0000
  C   C133      1.0  0.87260  0.44000  0.13180  1.0000
  C   C134      1.0  0.12740  0.94000  0.36820  1.0000
  C   C135      1.0  0.12740  0.56000  0.86820  1.0000
  C   C136      1.0  0.87260  0.06000  0.63180  1.0000
  H   H65       1.0  0.84570  0.49330  0.12050  1.0000
  H   H66       1.0  0.15430  0.99330  0.37950  1.0000
  H   H67       1.0  0.15430  0.50670  0.87950  1.0000
  H   H68       1.0  0.84570  0.00670  0.62050  1.0000
  C   C137      1.0  0.90440  0.42380  0.21140  1.0000
  C   C138      1.0  0.09560  0.92380  0.28860  1.0000
  C   C139      1.0  0.09560  0.57620  0.78860  1.0000
  C   C140      1.0  0.90440  0.07620  0.71140  1.0000
  H   H69       1.0  0.89850  0.46570  0.25420  1.0000
  H   H70       1.0  0.10150  0.96570  0.24580  1.0000
  H   H71       1.0  0.10150  0.53430  0.74580  1.0000
  H   H72       1.0  0.89850  0.03430  0.75420  1.0000
  C   C141      1.0  0.96880  0.38330  0.38570  1.0000
  C   C142      1.0  0.03120  0.88330  0.11430  1.0000
  C   C143      1.0  0.03120  0.61670  0.61430  1.0000
  C   C144      1.0  0.96880  0.11670  0.88570  1.0000
