data_image0
_chemical_formula_structural       Tb4C12H4C4H4C8H4C20H4C12H4C4H4C4O8H8O44N8
_chemical_formula_sum              "Tb4 C64 H32 O52 N8"
_cell_length_a       11.98
_cell_length_b       14.578
_cell_length_c       15.2371
_cell_angle_alpha    90
_cell_angle_beta     105.531
_cell_angle_gamma    90

_space_group_name_H-M_alt    "P 1"
_space_group_IT_number       1

loop_
  _space_group_symop_operation_xyz
  'x, y, z'

loop_
  _atom_site_type_symbol
  _atom_site_label
  _atom_site_symmetry_multiplicity
  _atom_site_fract_x
  _atom_site_fract_y
  _atom_site_fract_z
  _atom_site_occupancy
  Tb  Tb1       1.0  0.84740  0.43599  0.01402  1.0000
  Tb  Tb2       1.0  0.65260  0.93599  0.48597  1.0000
  Tb  Tb3       1.0  0.15260  0.56401  0.98598  1.0000
  Tb  Tb4       1.0  0.34740  0.06401  0.51402  1.0000
  C   C1        1.0  0.86200  0.52700  0.84780  1.0000
  C   C2        1.0  0.63800  0.02700  0.65220  1.0000
  C   C3        1.0  0.13800  0.47300  0.15220  1.0000
  C   C4        1.0  0.36200  0.97300  0.34780  1.0000
  C   C5        1.0  0.85540  0.58180  0.76290  1.0000
  C   C6        1.0  0.64460  0.08180  0.73710  1.0000
  C   C7        1.0  0.14460  0.41820  0.23710  1.0000
  C   C8        1.0  0.35540  0.91820  0.26290  1.0000
  C   C9        1.0  0.79970  0.66550  0.75400  1.0000
  C   C10       1.0  0.70030  0.16550  0.74600  1.0000
  C   C11       1.0  0.20030  0.33450  0.24600  1.0000
  C   C12       1.0  0.29970  0.83450  0.25400  1.0000
  H   H1        1.0  0.76180  0.68290  0.79730  1.0000
  H   H2        1.0  0.73820  0.18290  0.70270  1.0000
  H   H3        1.0  0.23820  0.31710  0.20270  1.0000
  H   H4        1.0  0.26180  0.81710  0.29730  1.0000
  C   C13       1.0  0.79880  0.72410  0.68250  1.0000
  C   C14       1.0  0.70120  0.22410  0.81750  1.0000
  C   C15       1.0  0.20120  0.27590  0.31750  1.0000
  C   C16       1.0  0.29880  0.77590  0.18250  1.0000
  H   H5        1.0  0.76170  0.78060  0.67880  1.0000
  H   H6        1.0  0.73830  0.28060  0.82120  1.0000
  H   H7        1.0  0.23830  0.21940  0.32120  1.0000
  H   H8        1.0  0.26170  0.71940  0.17880  1.0000
  C   C17       1.0  0.85320  0.69910  0.61610  1.0000
  C   C18       1.0  0.64680  0.19910  0.88390  1.0000
  C   C19       1.0  0.14680  0.30090  0.38390  1.0000
  C   C20       1.0  0.35320  0.80090  0.11610  1.0000
  C   C21       1.0  0.90520  0.61310  0.62140  1.0000
  C   C22       1.0  0.59480  0.11310  0.87860  1.0000
  C   C23       1.0  0.09480  0.38690  0.37860  1.0000
  C   C24       1.0  0.40520  0.88690  0.12140  1.0000
  H   H9        1.0  0.93890  0.59390  0.57620  1.0000
  H   H10       1.0  0.56110  0.09390  0.92380  1.0000
  H   H11       1.0  0.06110  0.40610  0.42380  1.0000
  H   H12       1.0  0.43890  0.90610  0.07620  1.0000
  C   C25       1.0  0.90630  0.55670  0.69410  1.0000
  C   C26       1.0  0.59370  0.05670  0.80590  1.0000
  C   C27       1.0  0.09370  0.44330  0.30590  1.0000
  C   C28       1.0  0.40630  0.94330  0.19410  1.0000
  C   C29       1.0  0.85770  0.76230  0.53880  1.0000
  C   C30       1.0  0.64230  0.26230  0.96120  1.0000
  C   C31       1.0  0.14230  0.23770  0.46120  1.0000
  C   C32       1.0  0.35770  0.73770  0.03880  1.0000
  C   C33       1.0  0.85400  0.34220  0.17350  1.0000
  C   C34       1.0  0.64600  0.84220  0.32650  1.0000
  C   C35       1.0  0.14600  0.65780  0.82650  1.0000
  C   C36       1.0  0.35400  0.15780  0.67350  1.0000
  C   C37       1.0  0.83090  0.28130  0.24590  1.0000
  C   C38       1.0  0.66910  0.78130  0.25410  1.0000
  C   C39       1.0  0.16910  0.71870  0.75410  1.0000
  C   C40       1.0  0.33090  0.21870  0.74590  1.0000
  C   C41       1.0  0.83020  0.31640  0.33010  1.0000
  C   C42       1.0  0.66980  0.81640  0.16990  1.0000
  C   C43       1.0  0.16980  0.68360  0.66990  1.0000
  C   C44       1.0  0.33020  0.18360  0.83010  1.0000
  H   H13       1.0  0.84350  0.37840  0.34310  1.0000
  H   H14       1.0  0.65650  0.87840  0.15690  1.0000
  H   H15       1.0  0.15650  0.62160  0.65690  1.0000
  H   H16       1.0  0.34350  0.12160  0.84310  1.0000
  C   C45       1.0  0.80920  0.25660  0.39460  1.0000
  C   C46       1.0  0.69080  0.75660  0.10540  1.0000
  C   C47       1.0  0.19080  0.74340  0.60540  1.0000
  C   C48       1.0  0.30920  0.24340  0.89460  1.0000
  C   C49       1.0  0.78440  0.16540  0.37700  1.0000
  C   C50       1.0  0.71560  0.66540  0.12300  1.0000
  C   C51       1.0  0.21560  0.83460  0.62300  1.0000
  C   C52       1.0  0.28440  0.33460  0.87700  1.0000
  C   C53       1.0  0.78240  0.13230  0.29080  1.0000
  C   C54       1.0  0.71760  0.63230  0.20920  1.0000
  C   C55       1.0  0.21760  0.86770  0.70920  1.0000
  C   C56       1.0  0.28240  0.36770  0.79080  1.0000
  H   H17       1.0  0.76420  0.07120  0.27640  1.0000
  H   H18       1.0  0.73580  0.57120  0.22360  1.0000
  H   H19       1.0  0.23580  0.92880  0.72360  1.0000
  H   H20       1.0  0.26420  0.42880  0.77640  1.0000
  C   C57       1.0  0.80750  0.19010  0.22690  1.0000
  C   C58       1.0  0.69250  0.69010  0.27310  1.0000
  C   C59       1.0  0.19250  0.80990  0.77310  1.0000
  C   C60       1.0  0.30750  0.30990  0.72690  1.0000
  H   H21       1.0  0.80860  0.16690  0.17030  1.0000
  H   H22       1.0  0.69140  0.66690  0.32970  1.0000
  H   H23       1.0  0.19140  0.83310  0.82970  1.0000
  H   H24       1.0  0.30860  0.33310  0.67030  1.0000
  C   C61       1.0  0.75110  0.09670  0.43920  1.0000
  C   C62       1.0  0.74890  0.59670  0.06080  1.0000
  C   C63       1.0  0.24890  0.90330  0.56080  1.0000
  C   C64       1.0  0.25110  0.40330  0.93920  1.0000
  O   O1        1.0  0.77200  0.48980  0.85747  1.0000
  O   O2        1.0  0.72800  0.98980  0.64253  1.0000
  O   O3        1.0  0.22800  0.51020  0.14253  1.0000
  O   O4        1.0  0.27200  0.01020  0.35747  1.0000
  O   O5        1.0  0.94040  0.32704  0.93994  1.0000
  O   O6        1.0  0.55960  0.82704  0.56006  1.0000
  O   O7        1.0  0.05960  0.67296  0.06006  1.0000
  O   O8        1.0  0.44040  0.17296  0.43994  1.0000
  H   H25       1.0  0.95200  0.27290  0.96100  1.0000
  H   H26       1.0  0.54800  0.77290  0.53900  1.0000
  H   H27       1.0  0.04800  0.72710  0.03900  1.0000
  H   H28       1.0  0.45200  0.22710  0.46100  1.0000
  H   H29       1.0  0.00200  0.34900  0.93100  1.0000
  H   H30       1.0  0.49800  0.84900  0.56900  1.0000
  H   H31       1.0  0.99800  0.65100  0.06900  1.0000
  H   H32       1.0  0.50200  0.15100  0.43100  1.0000
  O   O9        1.0  0.95550  0.52544  0.91050  1.0000
  O   O10       1.0  0.54450  0.02544  0.58950  1.0000
  O   O11       1.0  0.04450  0.47456  0.08950  1.0000
  O   O12       1.0  0.45550  0.97456  0.41050  1.0000
  O   O13       1.0  0.93560  0.40780  0.74510  1.0000
  O   O14       1.0  0.56440  0.90780  0.75490  1.0000
  O   O15       1.0  0.06440  0.59220  0.25490  1.0000
  O   O16       1.0  0.43560  0.09220  0.24510  1.0000
  O   O17       1.0  0.03100  0.45410  0.65240  1.0000
  O   O18       1.0  0.46900  0.95410  0.84760  1.0000
  O   O19       1.0  0.96900  0.54590  0.34760  1.0000
  O   O20       1.0  0.53100  0.04590  0.15240  1.0000
  O   O21       1.0  0.91170  0.73460  0.48484  1.0000
  O   O22       1.0  0.58830  0.23460  0.01516  1.0000
  O   O23       1.0  0.08830  0.26540  0.51516  1.0000
  O   O24       1.0  0.41170  0.76540  0.98484  1.0000
  O   O25       1.0  0.80950  0.83992  0.53583  1.0000
  O   O26       1.0  0.69050  0.33992  0.96417  1.0000
  O   O27       1.0  0.19050  0.16008  0.46417  1.0000
  O   O28       1.0  0.30950  0.66008  0.03583  1.0000
  O   O29       1.0  0.83050  0.42608  0.17187  1.0000
  O   O30       1.0  0.66950  0.92608  0.32813  1.0000
  O   O31       1.0  0.16950  0.57392  0.82813  1.0000
  O   O32       1.0  0.33050  0.07392  0.67187  1.0000
  O   O33       1.0  0.89180  0.30536  0.11207  1.0000
  O   O34       1.0  0.60820  0.80536  0.38793  1.0000
  O   O35       1.0  0.10820  0.69464  0.88793  1.0000
  O   O36       1.0  0.39180  0.19464  0.61207  1.0000
  O   O37       1.0  0.81860  0.37730  0.49603  1.0000
  O   O38       1.0  0.68140  0.87730  0.00397  1.0000
  O   O39       1.0  0.18140  0.62270  0.50397  1.0000
  O   O40       1.0  0.31860  0.12270  0.99603  1.0000
  O   O41       1.0  0.81260  0.24020  0.54600  1.0000
  O   O42       1.0  0.68740  0.74020  0.95400  1.0000
  O   O43       1.0  0.18740  0.75980  0.45400  1.0000
  O   O44       1.0  0.31260  0.25980  0.04600  1.0000
  O   O45       1.0  0.64730  0.09691  0.44434  1.0000
  O   O46       1.0  0.85270  0.59691  0.05566  1.0000
  O   O47       1.0  0.35270  0.90309  0.55566  1.0000
  O   O48       1.0  0.14730  0.40309  0.94434  1.0000
  O   O49       1.0  0.81980  0.03448  0.47378  1.0000
  O   O50       1.0  0.68020  0.53448  0.02622  1.0000
  O   O51       1.0  0.18020  0.96552  0.52622  1.0000
  O   O52       1.0  0.31980  0.46552  0.97378  1.0000
  N   N1        1.0  0.96190  0.46670  0.69740  1.0000
  N   N2        1.0  0.53810  0.96670  0.80260  1.0000
  N   N3        1.0  0.03810  0.53330  0.30260  1.0000
  N   N4        1.0  0.46190  0.03330  0.19740  1.0000
  N   N5        1.0  0.81390  0.29420  0.48540  1.0000
  N   N6        1.0  0.68610  0.79420  0.01460  1.0000
  N   N7        1.0  0.18610  0.70580  0.51460  1.0000
  N   N8        1.0  0.31390  0.20580  0.98540  1.0000
