data_image0
_chemical_formula_structural       C2H2C8O10H4O2H4Co
_chemical_formula_sum              "C10 H10 O12 Co1"
_cell_length_a       6.891
_cell_length_b       9.1326
_cell_length_c       9.723
_cell_angle_alpha    104.854
_cell_angle_beta     98.147
_cell_angle_gamma    109.648

_space_group_name_H-M_alt    "P 1"
_space_group_IT_number       1

loop_
  _space_group_symop_operation_xyz
  'x, y, z'

loop_
  _atom_site_type_symbol
  _atom_site_label
  _atom_site_symmetry_multiplicity
  _atom_site_fract_x
  _atom_site_fract_y
  _atom_site_fract_z
  _atom_site_occupancy
  C   C1        1.0  0.28740  0.45939  0.99977  1.0000
  C   C2        1.0  0.71260  0.54061  0.00023  1.0000
  H   H1        1.0  0.14100  0.43200  0.00000  1.0000
  H   H2        1.0  0.85900  0.56800  0.00000  1.0000
  C   C3        1.0  0.44330  0.58854  0.11697  1.0000
  C   C4        1.0  0.55670  0.41146  0.88303  1.0000
  C   C5        1.0  0.37390  0.68282  0.23849  1.0000
  C   C6        1.0  0.62610  0.31718  0.76151  1.0000
  C   C7        1.0  0.34220  0.37171  0.88254  1.0000
  C   C8        1.0  0.65780  0.62829  0.11746  1.0000
  C   C9        1.0  0.16410  0.23831  0.75649  1.0000
  C   C10       1.0  0.83590  0.76169  0.24351  1.0000
  O   O1        1.0  0.47170  0.83803  0.28676  1.0000
  O   O2        1.0  0.52830  0.16197  0.71324  1.0000
  O   O3        1.0  0.22780  0.60403  0.28300  1.0000
  O   O4        1.0  0.77220  0.39597  0.71700  1.0000
  O   O5        1.0  0.15430  0.25389  0.63082  1.0000
  O   O6        1.0  0.84570  0.74611  0.36918  1.0000
  O   O7        1.0  0.03790  0.12548  0.78794  1.0000
  O   O8        1.0  0.96210  0.87452  0.21206  1.0000
  O   O9        1.0  0.24398  0.82699  0.54165  1.0000
  O   O10       1.0  0.75602  0.17301  0.45835  1.0000
  H   H3        1.0  0.12000  0.81300  0.49200  1.0000
  H   H4        1.0  0.88000  0.18700  0.50800  1.0000
  H   H5        1.0  0.24700  0.74200  0.51800  1.0000
  H   H6        1.0  0.75300  0.25800  0.48200  1.0000
  O   O11       1.0  0.29641  0.09671  0.41332  1.0000
  O   O12       1.0  0.70359  0.90329  0.58668  1.0000
  H   H7        1.0  0.26100  0.14200  0.47600  1.0000
  H   H8        1.0  0.73900  0.85800  0.52400  1.0000
  H   H9        1.0  0.19200  0.02600  0.34900  1.0000
  H   H10       1.0  0.80800  0.97400  0.65100  1.0000
  Co  Co1       1.0  0.50000  0.00000  0.50000  1.0000
