data_image0
_chemical_formula_structural       Zn2N4C8H4C4H4O4C4O12C12H4
_chemical_formula_sum              "Zn2 N4 C28 H12 O16"
_cell_length_a       11.3068
_cell_length_b       6.6851
_cell_length_c       23.5
_cell_angle_alpha    90
_cell_angle_beta     103.495
_cell_angle_gamma    90

_space_group_name_H-M_alt    "P 1"
_space_group_IT_number       1

loop_
  _space_group_symop_operation_xyz
  'x, y, z'

loop_
  _atom_site_type_symbol
  _atom_site_label
  _atom_site_symmetry_multiplicity
  _atom_site_fract_x
  _atom_site_fract_y
  _atom_site_fract_z
  _atom_site_occupancy
  Zn  Zn1       1.0  0.00000  0.00000  0.00000  1.0000
  Zn  Zn2       1.0  0.50000  0.50000  0.50000  1.0000
  N   N1        1.0  0.99616  0.22810  0.93921  1.0000
  N   N2        1.0  0.50384  0.72810  0.56079  1.0000
  N   N3        1.0  0.00384  0.77190  0.06079  1.0000
  N   N4        1.0  0.49616  0.27190  0.43921  1.0000
  C   C1        1.0  0.07920  0.37180  0.95823  1.0000
  C   C2        1.0  0.42080  0.87180  0.54177  1.0000
  C   C3        1.0  0.92080  0.62820  0.04177  1.0000
  C   C4        1.0  0.57920  0.12820  0.45823  1.0000
  C   C5        1.0  0.91970  0.24520  0.88685  1.0000
  C   C6        1.0  0.58030  0.74520  0.61315  1.0000
  C   C7        1.0  0.08030  0.75480  0.11315  1.0000
  C   C8        1.0  0.41970  0.25480  0.38685  1.0000
  H   H1        1.0  0.86220  0.14540  0.87430  1.0000
  H   H2        1.0  0.63780  0.64540  0.62570  1.0000
  H   H3        1.0  0.13780  0.85460  0.12570  1.0000
  H   H4        1.0  0.36220  0.35460  0.37430  1.0000
  C   C9        1.0  0.92340  0.40670  0.85081  1.0000
  C   C10       1.0  0.57660  0.90670  0.64919  1.0000
  C   C11       1.0  0.07660  0.59330  0.14919  1.0000
  C   C12       1.0  0.42340  0.09330  0.35081  1.0000
  H   H5        1.0  0.87010  0.41460  0.81420  1.0000
  H   H6        1.0  0.62990  0.91460  0.68580  1.0000
  H   H7        1.0  0.12990  0.58540  0.18580  1.0000
  H   H8        1.0  0.37010  0.08540  0.31420  1.0000
  O   O1        1.0  0.13592  0.18530  0.04637  1.0000
  O   O2        1.0  0.36408  0.68530  0.45363  1.0000
  O   O3        1.0  0.86408  0.81470  0.95363  1.0000
  O   O4        1.0  0.63592  0.31470  0.54637  1.0000
  C   C13       1.0  0.16180  0.33340  0.01849  1.0000
  C   C14       1.0  0.33820  0.83340  0.48151  1.0000
  C   C15       1.0  0.83820  0.66660  0.98151  1.0000
  C   C16       1.0  0.66180  0.16660  0.51849  1.0000
  O   O5        1.0  0.24819  0.44960  0.03517  1.0000
  O   O6        1.0  0.25181  0.94960  0.46483  1.0000
  O   O7        1.0  0.75181  0.55040  0.96483  1.0000
  O   O8        1.0  0.74819  0.05040  0.53517  1.0000
  O   O9        1.0  0.15306  0.85410  0.96911  1.0000
  O   O10       1.0  0.34694  0.35410  0.53089  1.0000
  O   O11       1.0  0.84694  0.14590  0.03089  1.0000
  O   O12       1.0  0.65306  0.64590  0.46911  1.0000
  O   O13       1.0  0.28092  0.68310  0.92998  1.0000
  O   O14       1.0  0.21908  0.18310  0.57002  1.0000
  O   O15       1.0  0.71908  0.31690  0.07002  1.0000
  O   O16       1.0  0.78092  0.81690  0.42998  1.0000
  C   C17       1.0  0.18130  0.70400  0.94349  1.0000
  C   C18       1.0  0.31870  0.20400  0.55651  1.0000
  C   C19       1.0  0.81870  0.29600  0.05651  1.0000
  C   C20       1.0  0.68130  0.79600  0.44349  1.0000
  C   C21       1.0  0.08790  0.54000  0.92433  1.0000
  C   C22       1.0  0.41210  0.04000  0.57567  1.0000
  C   C23       1.0  0.91210  0.46000  0.07567  1.0000
  C   C24       1.0  0.58790  0.96000  0.42433  1.0000
  C   C25       1.0  0.00740  0.55650  0.86993  1.0000
  C   C26       1.0  0.49260  0.05650  0.63007  1.0000
  C   C27       1.0  0.99260  0.44350  0.13007  1.0000
  C   C28       1.0  0.50740  0.94350  0.36993  1.0000
  H   H9        1.0  0.01010  0.66780  0.84650  1.0000
  H   H10       1.0  0.48990  0.16780  0.65350  1.0000
  H   H11       1.0  0.98990  0.33220  0.15350  1.0000
  H   H12       1.0  0.51010  0.83220  0.34650  1.0000
