data_image0
_chemical_formula_structural       Mn8O40C8H12C12H4C4H4C4H4C4H4C12H4C4H4C20H4C4H4C4H4C4H4C12H4C4H4C8
_chemical_formula_sum              "Mn8 O40 C104 H60"
_cell_length_a       12.8396
_cell_length_b       16.4521
_cell_length_c       15.4674
_cell_angle_alpha    90
_cell_angle_beta     93.7782
_cell_angle_gamma    90

_space_group_name_H-M_alt    "P 1"
_space_group_IT_number       1

loop_
  _space_group_symop_operation_xyz
  'x, y, z'

loop_
  _atom_site_type_symbol
  _atom_site_label
  _atom_site_symmetry_multiplicity
  _atom_site_fract_x
  _atom_site_fract_y
  _atom_site_fract_z
  _atom_site_occupancy
  Mn  Mn1       1.0  0.74391  0.52137  0.87885  1.0000
  Mn  Mn2       1.0  0.25609  0.02137  0.62115  1.0000
  Mn  Mn3       1.0  0.25609  0.47863  0.12115  1.0000
  Mn  Mn4       1.0  0.74391  0.97863  0.37885  1.0000
  Mn  Mn5       1.0  0.00000  0.50000  1.00000  1.0000
  Mn  Mn6       1.0  0.00000  0.00000  0.50000  1.0000
  Mn  Mn7       1.0  0.50000  0.50000  1.00000  1.0000
  Mn  Mn8       1.0  0.50000  0.00000  0.50000  1.0000
  O   O1        1.0  0.33448  0.52822  0.00145  1.0000
  O   O2        1.0  0.66552  0.02822  0.49855  1.0000
  O   O3        1.0  0.66552  0.47178  0.99855  1.0000
  O   O4        1.0  0.33448  0.97178  0.50145  1.0000
  O   O5        1.0  0.16919  0.49782  0.98873  1.0000
  O   O6        1.0  0.83081  0.99782  0.51127  1.0000
  O   O7        1.0  0.83081  0.50218  0.01127  1.0000
  O   O8        1.0  0.16919  0.00218  0.48873  1.0000
  O   O9        1.0  0.01922  0.10997  0.57264  1.0000
  O   O10       1.0  0.98078  0.60997  0.92736  1.0000
  O   O11       1.0  0.98078  0.89003  0.42736  1.0000
  O   O12       1.0  0.01922  0.39003  0.07264  1.0000
  O   O13       1.0  0.13787  0.08418  0.68275  1.0000
  O   O14       1.0  0.86213  0.58418  0.81725  1.0000
  O   O15       1.0  0.86213  0.91582  0.31725  1.0000
  O   O16       1.0  0.13787  0.41582  0.18275  1.0000
  O   O17       1.0  0.80919  0.40495  0.84730  1.0000
  O   O18       1.0  0.19081  0.90495  0.65270  1.0000
  O   O19       1.0  0.19081  0.59505  0.15270  1.0000
  O   O20       1.0  0.80919  0.09505  0.34730  1.0000
  O   O21       1.0  0.97882  0.42834  0.88445  1.0000
  O   O22       1.0  0.02118  0.92834  0.61555  1.0000
  O   O23       1.0  0.02118  0.57166  0.11555  1.0000
  O   O24       1.0  0.97882  0.07166  0.38445  1.0000
  O   O25       1.0  0.38507  0.98662  0.70696  1.0000
  O   O26       1.0  0.61493  0.48662  0.79304  1.0000
  O   O27       1.0  0.61493  0.01338  0.29304  1.0000
  O   O28       1.0  0.38507  0.51338  0.20696  1.0000
  O   O29       1.0  0.51684  0.94548  0.62873  1.0000
  O   O30       1.0  0.48316  0.44548  0.87127  1.0000
  O   O31       1.0  0.48316  0.05452  0.37127  1.0000
  O   O32       1.0  0.51684  0.55452  0.12873  1.0000
  O   O33       1.0  0.67539  0.63763  0.90147  1.0000
  O   O34       1.0  0.32461  0.13763  0.59853  1.0000
  O   O35       1.0  0.32461  0.36237  0.09853  1.0000
  O   O36       1.0  0.67539  0.86237  0.40147  1.0000
  O   O37       1.0  0.51340  0.62236  0.94436  1.0000
  O   O38       1.0  0.48660  0.12236  0.55564  1.0000
  O   O39       1.0  0.48660  0.37764  0.05564  1.0000
  O   O40       1.0  0.51340  0.87764  0.44436  1.0000
  C   C1        1.0  0.24759  0.53010  0.95775  1.0000
  C   C2        1.0  0.75241  0.03010  0.54225  1.0000
  C   C3        1.0  0.75241  0.46990  0.04225  1.0000
  C   C4        1.0  0.24759  0.96990  0.45775  1.0000
  C   C5        1.0  0.23668  0.57138  0.87154  1.0000
  C   C6        1.0  0.76332  0.07138  0.62846  1.0000
  C   C7        1.0  0.76332  0.42862  0.12846  1.0000
  C   C8        1.0  0.23668  0.92862  0.37154  1.0000
  H   H1        1.0  0.16590  0.56670  0.84800  1.0000
  H   H2        1.0  0.83410  0.06670  0.65200  1.0000
  H   H3        1.0  0.83410  0.43330  0.15200  1.0000
  H   H4        1.0  0.16590  0.93330  0.34800  1.0000
  H   H5        1.0  0.28250  0.54610  0.83290  1.0000
  H   H6        1.0  0.71750  0.04610  0.66710  1.0000
  H   H7        1.0  0.71750  0.45390  0.16710  1.0000
  H   H8        1.0  0.28250  0.95390  0.33290  1.0000
  H   H9        1.0  0.25470  0.62780  0.87840  1.0000
  H   H10       1.0  0.74530  0.12780  0.62160  1.0000
  H   H11       1.0  0.74530  0.37220  0.12160  1.0000
  H   H12       1.0  0.25470  0.87220  0.37840  1.0000
  C   C9        1.0  0.01204  0.18629  0.70063  1.0000
  C   C10       1.0  0.98796  0.68629  0.79937  1.0000
  C   C11       1.0  0.98796  0.81371  0.29937  1.0000
  C   C12       1.0  0.01204  0.31371  0.20063  1.0000
  C   C13       1.0  0.98405  0.17266  0.78710  1.0000
  C   C14       1.0  0.01595  0.67266  0.71290  1.0000
  C   C15       1.0  0.01595  0.82734  0.21290  1.0000
  C   C16       1.0  0.98405  0.32734  0.28710  1.0000
  C   C17       1.0  0.99164  0.09504  0.82721  1.0000
  C   C18       1.0  0.00836  0.59504  0.67279  1.0000
  C   C19       1.0  0.00836  0.90496  0.17279  1.0000
  C   C20       1.0  0.99164  0.40496  0.32721  1.0000
  H   H13       1.0  0.01630  0.05090  0.79700  1.0000
  H   H14       1.0  0.98370  0.55090  0.70300  1.0000
  H   H15       1.0  0.98370  0.94910  0.20300  1.0000
  H   H16       1.0  0.01630  0.44910  0.29700  1.0000
  C   C21       1.0  0.96283  0.08494  0.91023  1.0000
  C   C22       1.0  0.03717  0.58494  0.58977  1.0000
  C   C23       1.0  0.03717  0.91506  0.08977  1.0000
  C   C24       1.0  0.96283  0.41506  0.41023  1.0000
  H   H17       1.0  0.96700  0.03370  0.93560  1.0000
  H   H18       1.0  0.03300  0.53370  0.56440  1.0000
  H   H19       1.0  0.03300  0.96630  0.06440  1.0000
  H   H20       1.0  0.96700  0.46630  0.43560  1.0000
  C   C25       1.0  0.92690  0.15121  0.95768  1.0000
  C   C26       1.0  0.07310  0.65121  0.54232  1.0000
  C   C27       1.0  0.07310  0.84879  0.04232  1.0000
  C   C28       1.0  0.92690  0.34879  0.45768  1.0000
  H   H21       1.0  0.90880  0.14350  0.01430  1.0000
  H   H22       1.0  0.09120  0.64350  0.48570  1.0000
  H   H23       1.0  0.09120  0.85650  0.98570  1.0000
  H   H24       1.0  0.90880  0.35650  0.51430  1.0000
  C   C29       1.0  0.91841  0.22664  0.92100  1.0000
  C   C30       1.0  0.08159  0.72664  0.57900  1.0000
  C   C31       1.0  0.08159  0.77336  0.07900  1.0000
  C   C32       1.0  0.91841  0.27336  0.42100  1.0000
  H   H25       1.0  0.89490  0.27000  0.95300  1.0000
  H   H26       1.0  0.10510  0.77000  0.54700  1.0000
  H   H27       1.0  0.10510  0.73000  0.04700  1.0000
  H   H28       1.0  0.89490  0.23000  0.45300  1.0000
  C   C33       1.0  0.94516  0.23947  0.83433  1.0000
  C   C34       1.0  0.05484  0.73947  0.66567  1.0000
  C   C35       1.0  0.05484  0.76053  0.16567  1.0000
  C   C36       1.0  0.94516  0.26053  0.33433  1.0000
  C   C37       1.0  0.93718  0.31715  0.79470  1.0000
  C   C38       1.0  0.06282  0.81715  0.70530  1.0000
  C   C39       1.0  0.06282  0.68285  0.20530  1.0000
  C   C40       1.0  0.93718  0.18285  0.29470  1.0000
  C   C41       1.0  0.96440  0.32774  0.71137  1.0000
  C   C42       1.0  0.03560  0.82774  0.78863  1.0000
  C   C43       1.0  0.03560  0.67226  0.28863  1.0000
  C   C44       1.0  0.96440  0.17226  0.21137  1.0000
  H   H29       1.0  0.95930  0.37900  0.68600  1.0000
  H   H30       1.0  0.04070  0.87900  0.81400  1.0000
  H   H31       1.0  0.04070  0.62100  0.31400  1.0000
  H   H32       1.0  0.95930  0.12100  0.18600  1.0000
  C   C45       1.0  0.99995  0.26140  0.66379  1.0000
  C   C46       1.0  0.00005  0.76140  0.83621  1.0000
  C   C47       1.0  0.00005  0.73860  0.33621  1.0000
  C   C48       1.0  0.99995  0.23860  0.16379  1.0000
  H   H33       1.0  0.01540  0.26890  0.60640  1.0000
  H   H34       1.0  0.98460  0.76890  0.89360  1.0000
  H   H35       1.0  0.98460  0.73110  0.39360  1.0000
  H   H36       1.0  0.01540  0.23110  0.10640  1.0000
  C   C49       1.0  0.05944  0.12082  0.64793  1.0000
  C   C50       1.0  0.94056  0.62082  0.85207  1.0000
  C   C51       1.0  0.94056  0.87918  0.35207  1.0000
  C   C52       1.0  0.05944  0.37918  0.14793  1.0000
  C   C53       1.0  0.90534  0.38981  0.84677  1.0000
  C   C54       1.0  0.09466  0.88981  0.65323  1.0000
  C   C55       1.0  0.09466  0.61019  0.15323  1.0000
  C   C56       1.0  0.90534  0.11019  0.34677  1.0000
  C   C57       1.0  0.49128  0.87654  0.75997  1.0000
  C   C58       1.0  0.50872  0.37654  0.74003  1.0000
  C   C59       1.0  0.50872  0.12346  0.24003  1.0000
  C   C60       1.0  0.49128  0.62346  0.25997  1.0000
  C   C61       1.0  0.59254  0.87522  0.80418  1.0000
  C   C62       1.0  0.40746  0.37522  0.69582  1.0000
  C   C63       1.0  0.40746  0.12478  0.19582  1.0000
  C   C64       1.0  0.59254  0.62478  0.30418  1.0000
  C   C65       1.0  0.66063  0.94272  0.80047  1.0000
  C   C66       1.0  0.33937  0.44272  0.69953  1.0000
  C   C67       1.0  0.33937  0.05728  0.19953  1.0000
  C   C68       1.0  0.66063  0.55728  0.30047  1.0000
  H   H37       1.0  0.64100  0.98690  0.76560  1.0000
  H   H38       1.0  0.35900  0.48690  0.73440  1.0000
  H   H39       1.0  0.35900  0.01310  0.23440  1.0000
  H   H40       1.0  0.64100  0.51310  0.26560  1.0000
  C   C69       1.0  0.75470  0.94396  0.84720  1.0000
  C   C70       1.0  0.24530  0.44396  0.65280  1.0000
  C   C71       1.0  0.24530  0.05604  0.15280  1.0000
  C   C72       1.0  0.75470  0.55604  0.34720  1.0000
  H   H41       1.0  0.79820  0.98890  0.84450  1.0000
  H   H42       1.0  0.20180  0.48890  0.65550  1.0000
  H   H43       1.0  0.20180  0.01110  0.15550  1.0000
  H   H44       1.0  0.79820  0.51110  0.34450  1.0000
  C   C73       1.0  0.78565  0.87677  0.89965  1.0000
  C   C74       1.0  0.21435  0.37677  0.60035  1.0000
  C   C75       1.0  0.21435  0.12323  0.10035  1.0000
  C   C76       1.0  0.78565  0.62323  0.39965  1.0000
  H   H45       1.0  0.84920  0.87820  0.93210  1.0000
  H   H46       1.0  0.15080  0.37820  0.56790  1.0000
  H   H47       1.0  0.15080  0.12180  0.06790  1.0000
  H   H48       1.0  0.84920  0.62180  0.43210  1.0000
  C   C77       1.0  0.72314  0.80971  0.90321  1.0000
  C   C78       1.0  0.27686  0.30971  0.59679  1.0000
  C   C79       1.0  0.27686  0.19029  0.09679  1.0000
  C   C80       1.0  0.72314  0.69029  0.40321  1.0000
  H   H49       1.0  0.74590  0.76530  0.93660  1.0000
  H   H50       1.0  0.25410  0.26530  0.56340  1.0000
  H   H51       1.0  0.25410  0.23470  0.06340  1.0000
  H   H52       1.0  0.74590  0.73470  0.43660  1.0000
  C   C81       1.0  0.62368  0.80682  0.85659  1.0000
  C   C82       1.0  0.37632  0.30682  0.64341  1.0000
  C   C83       1.0  0.37632  0.19318  0.14341  1.0000
  C   C84       1.0  0.62368  0.69318  0.35659  1.0000
  C   C85       1.0  0.55166  0.74063  0.86390  1.0000
  C   C86       1.0  0.44834  0.24063  0.63610  1.0000
  C   C87       1.0  0.44834  0.25937  0.13610  1.0000
  C   C88       1.0  0.55166  0.75937  0.36390  1.0000
  C   C89       1.0  0.45165  0.74825  0.82637  1.0000
  C   C90       1.0  0.54835  0.24825  0.67363  1.0000
  C   C91       1.0  0.54835  0.25175  0.17363  1.0000
  C   C92       1.0  0.45165  0.75175  0.32637  1.0000
  H   H53       1.0  0.40310  0.70760  0.83530  1.0000
  H   H54       1.0  0.59690  0.20760  0.66470  1.0000
  H   H55       1.0  0.59690  0.29240  0.16470  1.0000
  H   H56       1.0  0.40310  0.79240  0.33530  1.0000
  C   C93       1.0  0.42093  0.81614  0.77479  1.0000
  C   C94       1.0  0.57907  0.31614  0.72521  1.0000
  C   C95       1.0  0.57907  0.18386  0.22521  1.0000
  C   C96       1.0  0.42093  0.68386  0.27479  1.0000
  H   H57       1.0  0.35280  0.81990  0.75080  1.0000
  H   H58       1.0  0.64720  0.31990  0.74920  1.0000
  H   H59       1.0  0.64720  0.18010  0.24920  1.0000
  H   H60       1.0  0.35280  0.68010  0.25080  1.0000
  C   C97       1.0  0.46236  0.94228  0.69365  1.0000
  C   C98       1.0  0.53764  0.44228  0.80635  1.0000
  C   C99       1.0  0.53764  0.05772  0.30635  1.0000
  C   C100      1.0  0.46236  0.55772  0.19365  1.0000
  C   C101      1.0  0.58272  0.66043  0.90709  1.0000
  C   C102      1.0  0.41728  0.16043  0.59291  1.0000
  C   C103      1.0  0.41728  0.33957  0.09291  1.0000
  C   C104      1.0  0.58272  0.83957  0.40709  1.0000
