data_image0
_chemical_formula_structural       Zn8C16H8C16H8C16H8C24O48
_chemical_formula_sum              "Zn8 C72 H24 O48"
_cell_length_a       15.3015
_cell_length_b       16.139
_cell_length_c       12.4633
_cell_angle_alpha    90
_cell_angle_beta     90
_cell_angle_gamma    90

_space_group_name_H-M_alt    "P 1"
_space_group_IT_number       1

loop_
  _space_group_symop_operation_xyz
  'x, y, z'

loop_
  _atom_site_type_symbol
  _atom_site_label
  _atom_site_symmetry_multiplicity
  _atom_site_fract_x
  _atom_site_fract_y
  _atom_site_fract_z
  _atom_site_occupancy
  Zn  Zn1       1.0  0.01190  0.41166  0.90399  1.0000
  Zn  Zn2       1.0  0.48810  0.58834  0.40399  1.0000
  Zn  Zn3       1.0  0.98810  0.91166  0.59601  1.0000
  Zn  Zn4       1.0  0.51190  0.08834  0.09601  1.0000
  Zn  Zn5       1.0  0.98810  0.58834  0.09601  1.0000
  Zn  Zn6       1.0  0.51190  0.41166  0.59601  1.0000
  Zn  Zn7       1.0  0.01190  0.08834  0.40399  1.0000
  Zn  Zn8       1.0  0.48810  0.91166  0.90399  1.0000
  C   C1        1.0  0.86285  0.53790  0.70463  1.0000
  C   C2        1.0  0.63715  0.46210  0.20463  1.0000
  C   C3        1.0  0.13715  0.03790  0.79537  1.0000
  C   C4        1.0  0.36285  0.96210  0.29537  1.0000
  C   C5        1.0  0.13715  0.46210  0.29537  1.0000
  C   C6        1.0  0.36285  0.53790  0.79537  1.0000
  C   C7        1.0  0.86285  0.96210  0.20463  1.0000
  C   C8        1.0  0.63715  0.03790  0.70463  1.0000
  C   C9        1.0  0.78318  0.52375  0.65428  1.0000
  C   C10       1.0  0.71682  0.47625  0.15428  1.0000
  C   C11       1.0  0.21682  0.02375  0.84572  1.0000
  C   C12       1.0  0.28318  0.97625  0.34572  1.0000
  C   C13       1.0  0.21682  0.47625  0.34572  1.0000
  C   C14       1.0  0.28318  0.52375  0.84572  1.0000
  C   C15       1.0  0.78318  0.97625  0.15428  1.0000
  C   C16       1.0  0.71682  0.02375  0.65428  1.0000
  H   H1        1.0  0.75620  0.47230  0.66020  1.0000
  H   H2        1.0  0.74380  0.52770  0.16020  1.0000
  H   H3        1.0  0.24380  0.97230  0.83980  1.0000
  H   H4        1.0  0.25620  0.02770  0.33980  1.0000
  H   H5        1.0  0.24380  0.52770  0.33980  1.0000
  H   H6        1.0  0.25620  0.47230  0.83980  1.0000
  H   H7        1.0  0.75620  0.02770  0.16020  1.0000
  H   H8        1.0  0.74380  0.97230  0.66020  1.0000
  C   C17       1.0  0.74381  0.58648  0.59509  1.0000
  C   C18       1.0  0.75619  0.41352  0.09509  1.0000
  C   C19       1.0  0.25619  0.08648  0.90491  1.0000
  C   C20       1.0  0.24381  0.91352  0.40491  1.0000
  C   C21       1.0  0.25619  0.41352  0.40491  1.0000
  C   C22       1.0  0.24381  0.58648  0.90491  1.0000
  C   C23       1.0  0.74381  0.91352  0.09509  1.0000
  C   C24       1.0  0.75619  0.08648  0.59509  1.0000
  C   C25       1.0  0.78412  0.66336  0.58623  1.0000
  C   C26       1.0  0.71588  0.33664  0.08623  1.0000
  C   C27       1.0  0.21588  0.16336  0.91377  1.0000
  C   C28       1.0  0.28412  0.83664  0.41377  1.0000
  C   C29       1.0  0.21588  0.33664  0.41377  1.0000
  C   C30       1.0  0.28412  0.66336  0.91377  1.0000
  C   C31       1.0  0.78412  0.83664  0.08623  1.0000
  C   C32       1.0  0.71588  0.16336  0.58623  1.0000
  H   H9        1.0  0.75780  0.70530  0.54660  1.0000
  H   H10       1.0  0.74220  0.29470  0.04660  1.0000
  H   H11       1.0  0.24220  0.20530  0.95340  1.0000
  H   H12       1.0  0.25780  0.79470  0.45340  1.0000
  H   H13       1.0  0.24220  0.29470  0.45340  1.0000
  H   H14       1.0  0.25780  0.70530  0.95340  1.0000
  H   H15       1.0  0.75780  0.79470  0.04660  1.0000
  H   H16       1.0  0.74220  0.20530  0.54660  1.0000
  C   C33       1.0  0.86380  0.67751  0.63658  1.0000
  C   C34       1.0  0.63620  0.32249  0.13658  1.0000
  C   C35       1.0  0.13620  0.17751  0.86342  1.0000
  C   C36       1.0  0.36380  0.82249  0.36342  1.0000
  C   C37       1.0  0.13620  0.32249  0.36342  1.0000
  C   C38       1.0  0.36380  0.67751  0.86342  1.0000
  C   C39       1.0  0.86380  0.82249  0.13658  1.0000
  C   C40       1.0  0.63620  0.17751  0.63658  1.0000
  C   C41       1.0  0.90316  0.61478  0.69578  1.0000
  C   C42       1.0  0.59684  0.38522  0.19578  1.0000
  C   C43       1.0  0.09684  0.11478  0.80422  1.0000
  C   C44       1.0  0.40316  0.88522  0.30422  1.0000
  C   C45       1.0  0.09684  0.38522  0.30422  1.0000
  C   C46       1.0  0.40316  0.61478  0.80422  1.0000
  C   C47       1.0  0.90316  0.88522  0.19578  1.0000
  C   C48       1.0  0.59684  0.11478  0.69578  1.0000
  H   H17       1.0  0.95650  0.62430  0.72950  1.0000
  H   H18       1.0  0.54350  0.37570  0.22950  1.0000
  H   H19       1.0  0.04350  0.12430  0.77050  1.0000
  H   H20       1.0  0.45650  0.87570  0.27050  1.0000
  H   H21       1.0  0.04350  0.37570  0.27050  1.0000
  H   H22       1.0  0.45650  0.62430  0.77050  1.0000
  H   H23       1.0  0.95650  0.87570  0.22950  1.0000
  H   H24       1.0  0.54350  0.12430  0.72950  1.0000
  C   C49       1.0  0.90250  0.48071  0.77343  1.0000
  C   C50       1.0  0.59750  0.51929  0.27343  1.0000
  C   C51       1.0  0.09750  0.98071  0.72657  1.0000
  C   C52       1.0  0.40250  0.01929  0.22657  1.0000
  C   C53       1.0  0.09750  0.51929  0.22657  1.0000
  C   C54       1.0  0.40250  0.48071  0.72657  1.0000
  C   C55       1.0  0.90250  0.01929  0.27343  1.0000
  C   C56       1.0  0.59750  0.98071  0.77343  1.0000
  C   C57       1.0  0.64685  0.55985  0.53500  1.0000
  C   C58       1.0  0.85315  0.44015  0.03500  1.0000
  C   C59       1.0  0.35315  0.05985  0.96500  1.0000
  C   C60       1.0  0.14685  0.94015  0.46500  1.0000
  C   C61       1.0  0.35315  0.44015  0.46500  1.0000
  C   C62       1.0  0.14685  0.55985  0.96500  1.0000
  C   C63       1.0  0.64685  0.94015  0.03500  1.0000
  C   C64       1.0  0.85315  0.05985  0.53500  1.0000
  C   C65       1.0  0.92393  0.76329  0.63521  1.0000
  C   C66       1.0  0.57607  0.23671  0.13521  1.0000
  C   C67       1.0  0.07607  0.26329  0.86479  1.0000
  C   C68       1.0  0.42393  0.73671  0.36479  1.0000
  C   C69       1.0  0.07607  0.23671  0.36479  1.0000
  C   C70       1.0  0.42393  0.76329  0.86479  1.0000
  C   C71       1.0  0.92393  0.73671  0.13521  1.0000
  C   C72       1.0  0.57607  0.26329  0.63521  1.0000
  O   O1        1.0  0.83750  0.42445  0.79311  1.0000
  O   O2        1.0  0.66250  0.57555  0.29311  1.0000
  O   O3        1.0  0.16250  0.92445  0.70689  1.0000
  O   O4        1.0  0.33750  0.07555  0.20689  1.0000
  O   O5        1.0  0.16250  0.57555  0.20689  1.0000
  O   O6        1.0  0.33750  0.42445  0.70689  1.0000
  O   O7        1.0  0.83750  0.07555  0.29311  1.0000
  O   O8        1.0  0.66250  0.92445  0.79311  1.0000
  O   O9        1.0  0.98454  0.49034  0.80564  1.0000
  O   O10       1.0  0.51546  0.50966  0.30564  1.0000
  O   O11       1.0  0.01546  0.99034  0.69436  1.0000
  O   O12       1.0  0.48454  0.00966  0.19436  1.0000
  O   O13       1.0  0.01546  0.50966  0.19436  1.0000
  O   O14       1.0  0.48454  0.49034  0.69436  1.0000
  O   O15       1.0  0.98454  0.00966  0.30564  1.0000
  O   O16       1.0  0.51546  0.99034  0.80564  1.0000
  O   O17       1.0  0.59884  0.61769  0.49210  1.0000
  O   O18       1.0  0.90116  0.38231  0.99210  1.0000
  O   O19       1.0  0.40116  0.11769  0.00790  1.0000
  O   O20       1.0  0.09884  0.88231  0.50790  1.0000
  O   O21       1.0  0.40116  0.38231  0.50790  1.0000
  O   O22       1.0  0.09884  0.61769  0.00790  1.0000
  O   O23       1.0  0.59884  0.88231  0.99210  1.0000
  O   O24       1.0  0.90116  0.11769  0.49210  1.0000
  O   O25       1.0  0.61823  0.48444  0.52653  1.0000
  O   O26       1.0  0.88177  0.51556  0.02653  1.0000
  O   O27       1.0  0.38177  0.98444  0.97347  1.0000
  O   O28       1.0  0.11823  0.01556  0.47347  1.0000
  O   O29       1.0  0.38177  0.51556  0.47347  1.0000
  O   O30       1.0  0.11823  0.48444  0.97347  1.0000
  O   O31       1.0  0.61823  0.01556  0.02653  1.0000
  O   O32       1.0  0.88177  0.98444  0.52653  1.0000
  O   O33       1.0  0.01768  0.76914  0.66724  1.0000
  O   O34       1.0  0.48232  0.23086  0.16724  1.0000
  O   O35       1.0  0.98232  0.26914  0.83276  1.0000
  O   O36       1.0  0.51768  0.73086  0.33276  1.0000
  O   O37       1.0  0.98232  0.23086  0.33276  1.0000
  O   O38       1.0  0.51768  0.76914  0.83276  1.0000
  O   O39       1.0  0.01768  0.73086  0.16724  1.0000
  O   O40       1.0  0.48232  0.26914  0.66724  1.0000
  O   O41       1.0  0.88092  0.81777  0.59835  1.0000
  O   O42       1.0  0.61908  0.18223  0.09835  1.0000
  O   O43       1.0  0.11908  0.31777  0.90165  1.0000
  O   O44       1.0  0.38092  0.68223  0.40165  1.0000
  O   O45       1.0  0.11908  0.18223  0.40165  1.0000
  O   O46       1.0  0.38092  0.81777  0.90165  1.0000
  O   O47       1.0  0.88092  0.68223  0.09835  1.0000
  O   O48       1.0  0.61908  0.31777  0.59835  1.0000
