data_image0
_chemical_formula_structural       Fe16S32C64H16C16H16C16H32S16Fe16S16
_chemical_formula_sum              "Fe32 S64 C96 H64"
_cell_length_a       17.1853
_cell_length_b       17.1853
_cell_length_c       20.4819
_cell_angle_alpha    90
_cell_angle_beta     90
_cell_angle_gamma    90

_space_group_name_H-M_alt    "P 1"
_space_group_IT_number       1

loop_
  _space_group_symop_operation_xyz
  'x, y, z'

loop_
  _atom_site_type_symbol
  _atom_site_label
  _atom_site_symmetry_multiplicity
  _atom_site_fract_x
  _atom_site_fract_y
  _atom_site_fract_z
  _atom_site_occupancy
  Fe  Fe1       1.0  0.05023  0.18820  0.57705  1.0000
  Fe  Fe2       1.0  0.56180  0.30023  0.82705  1.0000
  Fe  Fe3       1.0  0.44977  0.81180  0.07705  1.0000
  Fe  Fe4       1.0  0.93820  0.69977  0.32705  1.0000
  Fe  Fe5       1.0  0.55023  0.68820  0.07705  1.0000
  Fe  Fe6       1.0  0.06180  0.80023  0.32705  1.0000
  Fe  Fe7       1.0  0.94977  0.31180  0.57705  1.0000
  Fe  Fe8       1.0  0.43820  0.19977  0.82705  1.0000
  Fe  Fe9       1.0  0.94977  0.81180  0.42295  1.0000
  Fe  Fe10      1.0  0.43820  0.69977  0.17295  1.0000
  Fe  Fe11      1.0  0.55023  0.18820  0.92295  1.0000
  Fe  Fe12      1.0  0.06180  0.30023  0.67295  1.0000
  Fe  Fe13      1.0  0.44977  0.31180  0.92295  1.0000
  Fe  Fe14      1.0  0.93820  0.19977  0.67295  1.0000
  Fe  Fe15      1.0  0.05023  0.68820  0.42295  1.0000
  Fe  Fe16      1.0  0.56180  0.80023  0.17295  1.0000
  S   S1        1.0  0.91825  0.18439  0.56297  1.0000
  S   S2        1.0  0.56561  0.16825  0.81297  1.0000
  S   S3        1.0  0.58175  0.81561  0.06297  1.0000
  S   S4        1.0  0.93439  0.83175  0.31297  1.0000
  S   S5        1.0  0.41825  0.68439  0.06297  1.0000
  S   S6        1.0  0.06561  0.66825  0.31297  1.0000
  S   S7        1.0  0.08175  0.31561  0.56297  1.0000
  S   S8        1.0  0.43439  0.33175  0.81297  1.0000
  S   S9        1.0  0.08175  0.81561  0.43703  1.0000
  S   S10       1.0  0.43439  0.83175  0.18703  1.0000
  S   S11       1.0  0.41825  0.18439  0.93703  1.0000
  S   S12       1.0  0.06561  0.16825  0.68703  1.0000
  S   S13       1.0  0.58175  0.31561  0.93703  1.0000
  S   S14       1.0  0.93439  0.33175  0.68703  1.0000
  S   S15       1.0  0.91825  0.68439  0.43703  1.0000
  S   S16       1.0  0.56561  0.66825  0.18703  1.0000
  S   S17       1.0  0.12109  0.09558  0.52454  1.0000
  S   S18       1.0  0.65442  0.37109  0.77454  1.0000
  S   S19       1.0  0.37891  0.90442  0.02454  1.0000
  S   S20       1.0  0.84558  0.62891  0.27454  1.0000
  S   S21       1.0  0.62109  0.59558  0.02454  1.0000
  S   S22       1.0  0.15442  0.87109  0.27454  1.0000
  S   S23       1.0  0.87891  0.40442  0.52454  1.0000
  S   S24       1.0  0.34558  0.12891  0.77454  1.0000
  S   S25       1.0  0.87891  0.90442  0.47546  1.0000
  S   S26       1.0  0.34558  0.62891  0.22546  1.0000
  S   S27       1.0  0.62109  0.09558  0.97546  1.0000
  S   S28       1.0  0.15442  0.37109  0.72546  1.0000
  S   S29       1.0  0.37891  0.40442  0.97546  1.0000
  S   S30       1.0  0.84558  0.12891  0.72546  1.0000
  S   S31       1.0  0.12109  0.59558  0.47546  1.0000
  S   S32       1.0  0.65442  0.87109  0.22546  1.0000
  C   C1        1.0  0.83595  0.15390  0.80990  1.0000
  C   C2        1.0  0.59610  0.08595  0.05990  1.0000
  C   C3        1.0  0.66405  0.84610  0.30990  1.0000
  C   C4        1.0  0.90390  0.91405  0.55990  1.0000
  C   C5        1.0  0.33595  0.65390  0.30990  1.0000
  C   C6        1.0  0.09610  0.58595  0.55990  1.0000
  C   C7        1.0  0.16405  0.34610  0.80990  1.0000
  C   C8        1.0  0.40390  0.41405  0.05990  1.0000
  C   C9        1.0  0.16405  0.84610  0.19010  1.0000
  C   C10       1.0  0.40390  0.91405  0.94010  1.0000
  C   C11       1.0  0.33595  0.15390  0.69010  1.0000
  C   C12       1.0  0.09610  0.08595  0.44010  1.0000
  C   C13       1.0  0.66405  0.34610  0.69010  1.0000
  C   C14       1.0  0.90390  0.41405  0.44010  1.0000
  C   C15       1.0  0.83595  0.65390  0.19010  1.0000
  C   C16       1.0  0.59610  0.58595  0.94010  1.0000
  C   C17       1.0  0.89754  0.14269  0.85230  1.0000
  C   C18       1.0  0.60731  0.14754  0.10230  1.0000
  C   C19       1.0  0.60246  0.85731  0.35230  1.0000
  C   C20       1.0  0.89269  0.85246  0.60230  1.0000
  C   C21       1.0  0.39754  0.64269  0.35230  1.0000
  C   C22       1.0  0.10731  0.64754  0.60230  1.0000
  C   C23       1.0  0.10246  0.35731  0.85230  1.0000
  C   C24       1.0  0.39269  0.35246  0.10230  1.0000
  C   C25       1.0  0.10246  0.85731  0.14770  1.0000
  C   C26       1.0  0.39269  0.85246  0.89770  1.0000
  C   C27       1.0  0.39754  0.14269  0.64770  1.0000
  C   C28       1.0  0.10731  0.14754  0.39770  1.0000
  C   C29       1.0  0.60246  0.35731  0.64770  1.0000
  C   C30       1.0  0.89269  0.35246  0.39770  1.0000
  C   C31       1.0  0.89754  0.64269  0.14770  1.0000
  C   C32       1.0  0.60731  0.64754  0.89770  1.0000
  C   C33       1.0  0.76635  0.18454  0.83191  1.0000
  C   C34       1.0  0.56546  0.01635  0.08191  1.0000
  C   C35       1.0  0.73365  0.81546  0.33191  1.0000
  C   C36       1.0  0.93454  0.98365  0.58191  1.0000
  C   C37       1.0  0.26635  0.68454  0.33191  1.0000
  C   C38       1.0  0.06546  0.51635  0.58191  1.0000
  C   C39       1.0  0.23365  0.31546  0.83191  1.0000
  C   C40       1.0  0.43454  0.48365  0.08191  1.0000
  C   C41       1.0  0.23365  0.81546  0.16809  1.0000
  C   C42       1.0  0.43454  0.98365  0.91809  1.0000
  C   C43       1.0  0.26635  0.18454  0.66809  1.0000
  C   C44       1.0  0.06546  0.01635  0.41809  1.0000
  C   C45       1.0  0.73365  0.31546  0.66809  1.0000
  C   C46       1.0  0.93454  0.48365  0.41809  1.0000
  C   C47       1.0  0.76635  0.68454  0.16809  1.0000
  C   C48       1.0  0.56546  0.51635  0.91809  1.0000
  C   C49       1.0  0.88889  0.16228  0.91705  1.0000
  C   C50       1.0  0.58772  0.13889  0.16705  1.0000
  C   C51       1.0  0.61111  0.83772  0.41705  1.0000
  C   C52       1.0  0.91228  0.86111  0.66705  1.0000
  C   C53       1.0  0.38889  0.66228  0.41705  1.0000
  C   C54       1.0  0.08772  0.63889  0.66705  1.0000
  C   C55       1.0  0.11111  0.33772  0.91705  1.0000
  C   C56       1.0  0.41228  0.36111  0.16705  1.0000
  C   C57       1.0  0.11111  0.83772  0.08295  1.0000
  C   C58       1.0  0.41228  0.86111  0.83295  1.0000
  C   C59       1.0  0.38889  0.16228  0.58295  1.0000
  C   C60       1.0  0.08772  0.13889  0.33295  1.0000
  C   C61       1.0  0.61111  0.33772  0.58295  1.0000
  C   C62       1.0  0.91228  0.36111  0.33295  1.0000
  C   C63       1.0  0.88889  0.66228  0.08295  1.0000
  C   C64       1.0  0.58772  0.63889  0.83295  1.0000
  H   H1        1.0  0.94923  0.11981  0.83542  1.0000
  H   H2        1.0  0.63019  0.19923  0.08542  1.0000
  H   H3        1.0  0.55077  0.88019  0.33542  1.0000
  H   H4        1.0  0.86981  0.80077  0.58542  1.0000
  H   H5        1.0  0.44923  0.61981  0.33542  1.0000
  H   H6        1.0  0.13019  0.69923  0.58542  1.0000
  H   H7        1.0  0.05077  0.38019  0.83542  1.0000
  H   H8        1.0  0.36981  0.30077  0.08542  1.0000
  H   H9        1.0  0.05077  0.88019  0.16458  1.0000
  H   H10       1.0  0.36981  0.80077  0.91458  1.0000
  H   H11       1.0  0.44923  0.11981  0.66458  1.0000
  H   H12       1.0  0.13019  0.19923  0.41458  1.0000
  H   H13       1.0  0.55077  0.38019  0.66458  1.0000
  H   H14       1.0  0.86981  0.30077  0.41458  1.0000
  H   H15       1.0  0.94923  0.61981  0.16458  1.0000
  H   H16       1.0  0.63019  0.69923  0.91458  1.0000
  C   C65       1.0  0.75776  0.20409  0.89654  1.0000
  C   C66       1.0  0.54591  0.00776  0.14654  1.0000
  C   C67       1.0  0.74224  0.79591  0.39654  1.0000
  C   C68       1.0  0.95409  0.99224  0.64654  1.0000
  C   C69       1.0  0.25776  0.70409  0.39654  1.0000
  C   C70       1.0  0.04591  0.50776  0.64654  1.0000
  C   C71       1.0  0.24224  0.29591  0.89654  1.0000
  C   C72       1.0  0.45409  0.49224  0.14654  1.0000
  C   C73       1.0  0.24224  0.79591  0.10346  1.0000
  C   C74       1.0  0.45409  0.99224  0.85346  1.0000
  C   C75       1.0  0.25776  0.20409  0.60346  1.0000
  C   C76       1.0  0.04591  0.00776  0.35346  1.0000
  C   C77       1.0  0.74224  0.29591  0.60346  1.0000
  C   C78       1.0  0.95409  0.49224  0.35346  1.0000
  C   C79       1.0  0.75776  0.70409  0.10346  1.0000
  C   C80       1.0  0.54591  0.50776  0.85346  1.0000
  H   H17       1.0  0.72102  0.19254  0.79949  1.0000
  H   H18       1.0  0.55746  0.97102  0.04949  1.0000
  H   H19       1.0  0.77898  0.80746  0.29949  1.0000
  H   H20       1.0  0.94254  0.02898  0.54949  1.0000
  H   H21       1.0  0.22102  0.69254  0.29949  1.0000
  H   H22       1.0  0.05746  0.47102  0.54949  1.0000
  H   H23       1.0  0.27898  0.30746  0.79949  1.0000
  H   H24       1.0  0.44254  0.52898  0.04949  1.0000
  H   H25       1.0  0.27898  0.80746  0.20051  1.0000
  H   H26       1.0  0.44254  0.02898  0.95051  1.0000
  H   H27       1.0  0.22102  0.19254  0.70051  1.0000
  H   H28       1.0  0.05746  0.97102  0.45051  1.0000
  H   H29       1.0  0.77898  0.30746  0.70051  1.0000
  H   H30       1.0  0.94254  0.52898  0.45051  1.0000
  H   H31       1.0  0.72102  0.69254  0.20051  1.0000
  H   H32       1.0  0.55746  0.47102  0.95051  1.0000
  C   C81       1.0  0.81919  0.19285  0.93896  1.0000
  C   C82       1.0  0.55715  0.06919  0.18896  1.0000
  C   C83       1.0  0.68081  0.80715  0.43896  1.0000
  C   C84       1.0  0.94285  0.93081  0.68896  1.0000
  C   C85       1.0  0.31919  0.69285  0.43896  1.0000
  C   C86       1.0  0.05715  0.56919  0.68896  1.0000
  C   C87       1.0  0.18081  0.30715  0.93896  1.0000
  C   C88       1.0  0.44285  0.43081  0.18896  1.0000
  C   C89       1.0  0.18081  0.80715  0.06104  1.0000
  C   C90       1.0  0.44285  0.93081  0.81104  1.0000
  C   C91       1.0  0.31919  0.19285  0.56104  1.0000
  C   C92       1.0  0.05715  0.06919  0.31104  1.0000
  C   C93       1.0  0.68081  0.30715  0.56104  1.0000
  C   C94       1.0  0.94285  0.43081  0.31104  1.0000
  C   C95       1.0  0.81919  0.69285  0.06104  1.0000
  C   C96       1.0  0.55715  0.56919  0.81104  1.0000
  H   H33       1.0  0.93420  0.15425  0.94943  1.0000
  H   H34       1.0  0.59575  0.18420  0.19943  1.0000
  H   H35       1.0  0.56580  0.84575  0.44943  1.0000
  H   H36       1.0  0.90425  0.81580  0.69943  1.0000
  H   H37       1.0  0.43420  0.65425  0.44943  1.0000
  H   H38       1.0  0.09575  0.68420  0.69943  1.0000
  H   H39       1.0  0.06580  0.34575  0.94943  1.0000
  H   H40       1.0  0.40425  0.31580  0.19943  1.0000
  H   H41       1.0  0.06580  0.84575  0.05057  1.0000
  H   H42       1.0  0.40425  0.81580  0.80057  1.0000
  H   H43       1.0  0.43420  0.15425  0.55057  1.0000
  H   H44       1.0  0.09575  0.18420  0.30057  1.0000
  H   H45       1.0  0.56580  0.34575  0.55057  1.0000
  H   H46       1.0  0.90425  0.31580  0.30057  1.0000
  H   H47       1.0  0.93420  0.65425  0.05057  1.0000
  H   H48       1.0  0.59575  0.68420  0.80057  1.0000
  H   H49       1.0  0.70604  0.22697  0.91351  1.0000
  H   H50       1.0  0.52303  0.95604  0.16351  1.0000
  H   H51       1.0  0.79396  0.77303  0.41351  1.0000
  H   H52       1.0  0.97697  0.04396  0.66351  1.0000
  H   H53       1.0  0.20604  0.72697  0.41351  1.0000
  H   H54       1.0  0.02303  0.45604  0.66351  1.0000
  H   H55       1.0  0.29396  0.27303  0.91351  1.0000
  H   H56       1.0  0.47697  0.54396  0.16351  1.0000
  H   H57       1.0  0.29396  0.77303  0.08649  1.0000
  H   H58       1.0  0.47697  0.04396  0.83649  1.0000
  H   H59       1.0  0.20604  0.22697  0.58649  1.0000
  H   H60       1.0  0.02303  0.95604  0.33649  1.0000
  H   H61       1.0  0.79396  0.27303  0.58649  1.0000
  H   H62       1.0  0.97697  0.54396  0.33649  1.0000
  H   H63       1.0  0.70604  0.72697  0.08649  1.0000
  H   H64       1.0  0.52303  0.45604  0.83649  1.0000
  S   S33       1.0  0.80788  0.21829  0.02305  1.0000
  S   S34       1.0  0.53171  0.05788  0.27305  1.0000
  S   S35       1.0  0.69212  0.78171  0.52305  1.0000
  S   S36       1.0  0.96829  0.94212  0.77305  1.0000
  S   S37       1.0  0.30788  0.71829  0.52305  1.0000
  S   S38       1.0  0.03171  0.55788  0.77305  1.0000
  S   S39       1.0  0.19212  0.28171  0.02305  1.0000
  S   S40       1.0  0.46829  0.44212  0.27305  1.0000
  S   S41       1.0  0.19212  0.78171  0.97695  1.0000
  S   S42       1.0  0.46829  0.94212  0.72695  1.0000
  S   S43       1.0  0.30788  0.21829  0.47695  1.0000
  S   S44       1.0  0.03171  0.05788  0.22695  1.0000
  S   S45       1.0  0.69212  0.28171  0.47695  1.0000
  S   S46       1.0  0.96829  0.44212  0.22695  1.0000
  S   S47       1.0  0.80788  0.71829  0.97695  1.0000
  S   S48       1.0  0.53171  0.55788  0.72695  1.0000
  Fe  Fe17      1.0  0.92165  0.23523  0.07721  1.0000
  Fe  Fe18      1.0  0.51477  0.17165  0.32721  1.0000
  Fe  Fe19      1.0  0.57835  0.76477  0.57721  1.0000
  Fe  Fe20      1.0  0.98523  0.82835  0.82721  1.0000
  Fe  Fe21      1.0  0.42165  0.73523  0.57721  1.0000
  Fe  Fe22      1.0  0.01477  0.67165  0.82721  1.0000
  Fe  Fe23      1.0  0.07835  0.26477  0.07721  1.0000
  Fe  Fe24      1.0  0.48523  0.32835  0.32721  1.0000
  Fe  Fe25      1.0  0.07835  0.76477  0.92279  1.0000
  Fe  Fe26      1.0  0.48523  0.82835  0.67279  1.0000
  Fe  Fe27      1.0  0.42165  0.23523  0.42279  1.0000
  Fe  Fe28      1.0  0.01477  0.17165  0.17279  1.0000
  Fe  Fe29      1.0  0.57835  0.26477  0.42279  1.0000
  Fe  Fe30      1.0  0.98523  0.32835  0.17279  1.0000
  Fe  Fe31      1.0  0.92165  0.73523  0.92279  1.0000
  Fe  Fe32      1.0  0.51477  0.67165  0.67279  1.0000
  S   S49       1.0  0.02013  0.14769  0.06265  1.0000
  S   S50       1.0  0.60231  0.27013  0.31265  1.0000
  S   S51       1.0  0.47987  0.85231  0.56265  1.0000
  S   S52       1.0  0.89769  0.72987  0.81265  1.0000
  S   S53       1.0  0.52013  0.64769  0.56265  1.0000
  S   S54       1.0  0.10231  0.77013  0.81265  1.0000
  S   S55       1.0  0.97987  0.35231  0.06265  1.0000
  S   S56       1.0  0.39769  0.22987  0.31265  1.0000
  S   S57       1.0  0.97987  0.85231  0.93735  1.0000
  S   S58       1.0  0.39769  0.72987  0.68735  1.0000
  S   S59       1.0  0.52013  0.14769  0.43735  1.0000
  S   S60       1.0  0.10231  0.27013  0.18735  1.0000
  S   S61       1.0  0.47987  0.35231  0.43735  1.0000
  S   S62       1.0  0.89769  0.22987  0.18735  1.0000
  S   S63       1.0  0.02013  0.64769  0.93735  1.0000
  S   S64       1.0  0.60231  0.77013  0.68735  1.0000
