data_image0
_chemical_formula_structural       Fe4S12Fe4C4S4C16H4C4H12
_chemical_formula_sum              "Fe8 S16 C24 H16"
_cell_length_a       11.9266
_cell_length_b       11.9266
_cell_length_c       19.8484
_cell_angle_alpha    90
_cell_angle_beta     90
_cell_angle_gamma    90

_space_group_name_H-M_alt    "P 1"
_space_group_IT_number       1

loop_
  _space_group_symop_operation_xyz
  'x, y, z'

loop_
  _atom_site_type_symbol
  _atom_site_label
  _atom_site_symmetry_multiplicity
  _atom_site_fract_x
  _atom_site_fract_y
  _atom_site_fract_z
  _atom_site_occupancy
  Fe  Fe1       1.0  0.58200  0.41800  0.47290  1.0000
  Fe  Fe2       1.0  0.58200  0.58200  0.97290  1.0000
  Fe  Fe3       1.0  0.41800  0.58200  0.47290  1.0000
  Fe  Fe4       1.0  0.41800  0.41800  0.97290  1.0000
  S   S1        1.0  0.60650  0.60650  0.45760  1.0000
  S   S2        1.0  0.39350  0.60650  0.95760  1.0000
  S   S3        1.0  0.39350  0.39350  0.45760  1.0000
  S   S4        1.0  0.60650  0.39350  0.95760  1.0000
  S   S5        1.0  0.60720  0.39279  0.58660  1.0000
  S   S6        1.0  0.60721  0.60720  0.08660  1.0000
  S   S7        1.0  0.39280  0.60721  0.58660  1.0000
  S   S8        1.0  0.39279  0.39280  0.08660  1.0000
  S   S9        1.0  0.70750  0.29250  0.43140  1.0000
  S   S10       1.0  0.70750  0.70750  0.93140  1.0000
  S   S11       1.0  0.29250  0.70750  0.43140  1.0000
  S   S12       1.0  0.29250  0.29250  0.93140  1.0000
  Fe  Fe5       1.0  0.58200  0.58200  0.57140  1.0000
  Fe  Fe6       1.0  0.41800  0.58200  0.07140  1.0000
  Fe  Fe7       1.0  0.41800  0.41800  0.57140  1.0000
  Fe  Fe8       1.0  0.58200  0.41800  0.07140  1.0000
  C   C1        1.0  0.70750  0.29250  0.34170  1.0000
  C   C2        1.0  0.70750  0.70750  0.84170  1.0000
  C   C3        1.0  0.29250  0.70750  0.34170  1.0000
  C   C4        1.0  0.29250  0.29250  0.84170  1.0000
  S   S13       1.0  0.70750  0.70750  0.61290  1.0000
  S   S14       1.0  0.29250  0.70750  0.11290  1.0000
  S   S15       1.0  0.29250  0.29250  0.61290  1.0000
  S   S16       1.0  0.70750  0.29250  0.11290  1.0000
  C   C5        1.0  0.63660  0.36340  0.30690  1.0000
  C   C6        1.0  0.63660  0.63660  0.80690  1.0000
  C   C7        1.0  0.36340  0.63660  0.30690  1.0000
  C   C8        1.0  0.36340  0.36340  0.80690  1.0000
  C   C9        1.0  0.77840  0.22160  0.30690  1.0000
  C   C10       1.0  0.77840  0.77840  0.80690  1.0000
  C   C11       1.0  0.22160  0.77840  0.30690  1.0000
  C   C12       1.0  0.22160  0.22160  0.80690  1.0000
  C   C13       1.0  0.70750  0.70750  0.70260  1.0000
  C   C14       1.0  0.29250  0.70750  0.20260  1.0000
  C   C15       1.0  0.29250  0.29250  0.70260  1.0000
  C   C16       1.0  0.70750  0.29250  0.20260  1.0000
  C   C17       1.0  0.63660  0.36340  0.23740  1.0000
  C   C18       1.0  0.63660  0.63660  0.73740  1.0000
  C   C19       1.0  0.36340  0.63660  0.23740  1.0000
  C   C20       1.0  0.36340  0.36340  0.73740  1.0000
  H   H1        1.0  0.58360  0.41639  0.33289  1.0000
  H   H2        1.0  0.58361  0.58360  0.83289  1.0000
  H   H3        1.0  0.41640  0.58361  0.33289  1.0000
  H   H4        1.0  0.41639  0.41640  0.83289  1.0000
  C   C21       1.0  0.77840  0.22160  0.23740  1.0000
  C   C22       1.0  0.77840  0.77840  0.73740  1.0000
  C   C23       1.0  0.22160  0.77840  0.23740  1.0000
  C   C24       1.0  0.22160  0.22160  0.73740  1.0000
  H   H5        1.0  0.83139  0.16860  0.33289  1.0000
  H   H6        1.0  0.83140  0.83139  0.83289  1.0000
  H   H7        1.0  0.16861  0.83140  0.33289  1.0000
  H   H8        1.0  0.16860  0.16861  0.83289  1.0000
  H   H9        1.0  0.58360  0.41639  0.21140  1.0000
  H   H10       1.0  0.58361  0.58360  0.71140  1.0000
  H   H11       1.0  0.41640  0.58361  0.21140  1.0000
  H   H12       1.0  0.41639  0.41640  0.71140  1.0000
  H   H13       1.0  0.83139  0.16860  0.21140  1.0000
  H   H14       1.0  0.83140  0.83139  0.71140  1.0000
  H   H15       1.0  0.16861  0.83140  0.21140  1.0000
  H   H16       1.0  0.16860  0.16861  0.71140  1.0000
