data_image0
_chemical_formula_structural       Gd2O18C8H4
_chemical_formula_sum              "Gd2 O18 C8 H4"
_cell_length_a       7.816
_cell_length_b       6.1183
_cell_length_c       9.4646
_cell_angle_alpha    90
_cell_angle_beta     90.5
_cell_angle_gamma    90

_space_group_name_H-M_alt    "P 1"
_space_group_IT_number       1

loop_
  _space_group_symop_operation_xyz
  'x, y, z'

loop_
  _atom_site_type_symbol
  _atom_site_label
  _atom_site_symmetry_multiplicity
  _atom_site_fract_x
  _atom_site_fract_y
  _atom_site_fract_z
  _atom_site_occupancy
  Gd  Gd1       1.0  0.25000  0.39655  0.75000  1.0000
  Gd  Gd2       1.0  0.75000  0.60345  0.25000  1.0000
  O   O1        1.0  0.49560  0.27460  0.61510  1.0000
  O   O2        1.0  0.00440  0.27460  0.88490  1.0000
  O   O3        1.0  0.50440  0.72540  0.38490  1.0000
  O   O4        1.0  0.99560  0.72540  0.11510  1.0000
  O   O5        1.0  0.66460  0.34000  0.43070  1.0000
  O   O6        1.0  0.83540  0.34000  0.06930  1.0000
  O   O7        1.0  0.33540  0.66000  0.56930  1.0000
  O   O8        1.0  0.16460  0.66000  0.93070  1.0000
  O   O9        1.0  0.49720  0.61120  0.83020  1.0000
  O   O10       1.0  0.00280  0.61120  0.66980  1.0000
  O   O11       1.0  0.50280  0.38880  0.16980  1.0000
  O   O12       1.0  0.99720  0.38880  0.33020  1.0000
  O   O13       1.0  0.63260  0.72750  0.02370  1.0000
  O   O14       1.0  0.86740  0.72750  0.47630  1.0000
  O   O15       1.0  0.36740  0.27250  0.97630  1.0000
  O   O16       1.0  0.13260  0.27250  0.52370  1.0000
  O   O17       1.0  0.25000  0.00770  0.75000  1.0000
  O   O18       1.0  0.75000  0.99230  0.25000  1.0000
  C   C1        1.0  0.54560  0.38830  0.51300  1.0000
  C   C2        1.0  0.95440  0.38830  0.98700  1.0000
  C   C3        1.0  0.45440  0.61170  0.48700  1.0000
  C   C4        1.0  0.04560  0.61170  0.01300  1.0000
  C   C5        1.0  0.53660  0.59690  0.95790  1.0000
  C   C6        1.0  0.96340  0.59690  0.54210  1.0000
  C   C7        1.0  0.46340  0.40310  0.04210  1.0000
  C   C8        1.0  0.03660  0.40310  0.45790  1.0000
  H   H1        1.0  0.23500  0.93820  0.83900  1.0000
  H   H2        1.0  0.26500  0.93820  0.66100  1.0000
  H   H3        1.0  0.76500  0.06180  0.16100  1.0000
  H   H4        1.0  0.73500  0.06180  0.33900  1.0000
