data_image0
_chemical_formula_structural       C24H28Mn4O32
_chemical_formula_sum              "C24 H28 Mn4 O32"
_cell_length_a       20.575
_cell_length_b       6.755
_cell_length_c       9.23
_cell_angle_alpha    90
_cell_angle_beta     96.74
_cell_angle_gamma    90

_space_group_name_H-M_alt    "P 1"
_space_group_IT_number       1

loop_
  _space_group_symop_operation_xyz
  'x, y, z'

loop_
  _atom_site_type_symbol
  _atom_site_label
  _atom_site_symmetry_multiplicity
  _atom_site_fract_x
  _atom_site_fract_y
  _atom_site_fract_z
  _atom_site_occupancy
  C   C1        1.0  0.32730  0.39500  0.78340  1.0000
  C   C2        1.0  0.17270  0.89500  0.71660  1.0000
  C   C3        1.0  0.67270  0.60500  0.21660  1.0000
  C   C4        1.0  0.82730  0.10500  0.28340  1.0000
  C   C5        1.0  0.38630  0.46600  0.88290  1.0000
  C   C6        1.0  0.11370  0.96600  0.61710  1.0000
  C   C7        1.0  0.61370  0.53400  0.11710  1.0000
  C   C8        1.0  0.88630  0.03400  0.38290  1.0000
  C   C9        1.0  0.37090  0.66270  0.95770  1.0000
  C   C10       1.0  0.12910  0.16270  0.54230  1.0000
  C   C11       1.0  0.62910  0.33730  0.04230  1.0000
  C   C12       1.0  0.87090  0.83730  0.45770  1.0000
  C   C13       1.0  0.43410  0.74960  0.03680  1.0000
  C   C14       1.0  0.06590  0.24960  0.46320  1.0000
  C   C15       1.0  0.56590  0.25040  0.96320  1.0000
  C   C16       1.0  0.93410  0.75040  0.53680  1.0000
  C   C17       1.0  0.42590  0.93660  0.12500  1.0000
  C   C18       1.0  0.07410  0.43660  0.37500  1.0000
  C   C19       1.0  0.57410  0.06340  0.87500  1.0000
  C   C20       1.0  0.92590  0.56340  0.62500  1.0000
  C   C21       1.0  0.31980  0.62460  0.06650  1.0000
  C   C22       1.0  0.18020  0.12460  0.43350  1.0000
  C   C23       1.0  0.68020  0.37540  0.93350  1.0000
  C   C24       1.0  0.81980  0.87540  0.56650  1.0000
  H   H1        1.0  0.42300  0.48800  0.82800  1.0000
  H   H2        1.0  0.07700  0.98800  0.67200  1.0000
  H   H3        1.0  0.57700  0.51200  0.17200  1.0000
  H   H4        1.0  0.92300  0.01200  0.32800  1.0000
  H   H5        1.0  0.39700  0.37100  0.95200  1.0000
  H   H6        1.0  0.10300  0.87100  0.54800  1.0000
  H   H7        1.0  0.60300  0.62900  0.04800  1.0000
  H   H8        1.0  0.89700  0.12900  0.45200  1.0000
  H   H9        1.0  0.46400  0.76700  0.96200  1.0000
  H   H10       1.0  0.03600  0.26700  0.53800  1.0000
  H   H11       1.0  0.53600  0.23300  0.03800  1.0000
  H   H12       1.0  0.96400  0.73300  0.46200  1.0000
  H   H13       1.0  0.45500  0.65300  0.10200  1.0000
  H   H14       1.0  0.04500  0.15300  0.39800  1.0000
  H   H15       1.0  0.54500  0.34700  0.89800  1.0000
  H   H16       1.0  0.95500  0.84700  0.60200  1.0000
  H   H17       1.0  0.32700  0.76200  0.79300  1.0000
  H   H18       1.0  0.17300  0.26200  0.70700  1.0000
  H   H19       1.0  0.67300  0.23800  0.20700  1.0000
  H   H20       1.0  0.82700  0.73800  0.29300  1.0000
  H   H21       1.0  0.28100  0.62700  0.32600  1.0000
  H   H22       1.0  0.21900  0.12700  0.17400  1.0000
  H   H23       1.0  0.71900  0.37300  0.67400  1.0000
  H   H24       1.0  0.78100  0.87300  0.82600  1.0000
  H   H25       1.0  0.23900  0.76800  0.34500  1.0000
  H   H26       1.0  0.26100  0.26800  0.15500  1.0000
  H   H27       1.0  0.76100  0.23200  0.65500  1.0000
  H   H28       1.0  0.73900  0.73200  0.84500  1.0000
  Mn  Mn1       1.0  0.21780  0.51410  0.54010  1.0000
  Mn  Mn2       1.0  0.28220  0.01410  0.95990  1.0000
  Mn  Mn3       1.0  0.78220  0.48590  0.45990  1.0000
  Mn  Mn4       1.0  0.71780  0.98590  0.04010  1.0000
  O   O1        1.0  0.31330  0.49440  0.66610  1.0000
  O   O2        1.0  0.18670  0.99440  0.83390  1.0000
  O   O3        1.0  0.68670  0.50560  0.33390  1.0000
  O   O4        1.0  0.81330  0.00560  0.16610  1.0000
  O   O5        1.0  0.29260  0.25740  0.81890  1.0000
  O   O6        1.0  0.20740  0.75740  0.68110  1.0000
  O   O7        1.0  0.70740  0.74260  0.18110  1.0000
  O   O8        1.0  0.79260  0.24260  0.31890  1.0000
  O   O9        1.0  0.47450  0.99400  0.20860  1.0000
  O   O10       1.0  0.02550  0.49400  0.29140  1.0000
  O   O11       1.0  0.52550  0.00600  0.79140  1.0000
  O   O12       1.0  0.97450  0.50600  0.70860  1.0000
  O   O13       1.0  0.37160  0.02710  0.11230  1.0000
  O   O14       1.0  0.12840  0.52710  0.38770  1.0000
  O   O15       1.0  0.62840  0.97290  0.88770  1.0000
  O   O16       1.0  0.87160  0.47290  0.61230  1.0000
  O   O17       1.0  0.26660  0.71810  0.04750  1.0000
  O   O18       1.0  0.23340  0.21810  0.45250  1.0000
  O   O19       1.0  0.73340  0.28190  0.95250  1.0000
  O   O20       1.0  0.76660  0.78190  0.54750  1.0000
  O   O21       1.0  0.33410  0.50260  0.16790  1.0000
  O   O22       1.0  0.16590  0.00260  0.33210  1.0000
  O   O23       1.0  0.66590  0.49740  0.83210  1.0000
  O   O24       1.0  0.83410  0.99740  0.66790  1.0000
  O   O25       1.0  0.34560  0.80740  0.85210  1.0000
  O   O26       1.0  0.15440  0.30740  0.64790  1.0000
  O   O27       1.0  0.65440  0.19260  0.14790  1.0000
  O   O28       1.0  0.84560  0.69260  0.35210  1.0000
  O   O29       1.0  0.26060  0.68130  0.37860  1.0000
  O   O30       1.0  0.23940  0.18130  0.12140  1.0000
  O   O31       1.0  0.73940  0.31870  0.62140  1.0000
  O   O32       1.0  0.76060  0.81870  0.87860  1.0000
