data_image0
_chemical_formula_structural       In4Cl4C4H4Cl4C4H4C8H4C4H4C8H4C4H4C8H4C4H4C4O16C8
_chemical_formula_sum              "In4 Cl8 C56 H32 O16"
_cell_length_a       8.1788
_cell_length_b       19.259
_cell_length_c       15.5205
_cell_angle_alpha    90
_cell_angle_beta     102.436
_cell_angle_gamma    90

_space_group_name_H-M_alt    "P 1"
_space_group_IT_number       1

loop_
  _space_group_symop_operation_xyz
  'x, y, z'

loop_
  _atom_site_type_symbol
  _atom_site_label
  _atom_site_symmetry_multiplicity
  _atom_site_fract_x
  _atom_site_fract_y
  _atom_site_fract_z
  _atom_site_occupancy
  In  In1       1.0  0.57216  0.04404  0.24350  1.0000
  In  In2       1.0  0.92784  0.54404  0.25650  1.0000
  In  In3       1.0  0.42784  0.95596  0.75650  1.0000
  In  In4       1.0  0.07216  0.45596  0.74350  1.0000
  Cl  Cl1       1.0  0.56509  0.98492  0.37811  1.0000
  Cl  Cl2       1.0  0.93491  0.48492  0.12189  1.0000
  Cl  Cl3       1.0  0.43491  0.01508  0.62189  1.0000
  Cl  Cl4       1.0  0.06509  0.51508  0.87811  1.0000
  C   C1        1.0  0.45210  0.26719  0.89028  1.0000
  C   C2        1.0  0.04790  0.76719  0.60972  1.0000
  C   C3        1.0  0.54790  0.73281  0.10972  1.0000
  C   C4        1.0  0.95210  0.23281  0.39028  1.0000
  H   H1        1.0  0.34377  0.24706  0.88218  1.0000
  H   H2        1.0  0.15623  0.74706  0.61782  1.0000
  H   H3        1.0  0.65623  0.75294  0.11782  1.0000
  H   H4        1.0  0.84377  0.25294  0.38218  1.0000
  Cl  Cl5       1.0  0.57106  0.95201  0.14138  1.0000
  Cl  Cl6       1.0  0.92894  0.45201  0.35862  1.0000
  Cl  Cl7       1.0  0.42894  0.04799  0.85862  1.0000
  Cl  Cl8       1.0  0.07106  0.54799  0.64138  1.0000
  C   C5        1.0  0.59080  0.23055  0.93443  1.0000
  C   C6        1.0  0.90920  0.73055  0.56557  1.0000
  C   C7        1.0  0.40920  0.76945  0.06557  1.0000
  C   C8        1.0  0.09080  0.26945  0.43443  1.0000
  H   H5        1.0  0.57680  0.18511  0.95555  1.0000
  H   H6        1.0  0.92320  0.68511  0.54445  1.0000
  H   H7        1.0  0.42320  0.81489  0.04445  1.0000
  H   H8        1.0  0.07680  0.31489  0.45555  1.0000
  C   C9        1.0  0.75100  0.25953  0.94833  1.0000
  C   C10       1.0  0.74900  0.75953  0.55167  1.0000
  C   C11       1.0  0.24900  0.74047  0.05167  1.0000
  C   C12       1.0  0.25100  0.24047  0.44833  1.0000
  C   C13       1.0  0.76860  0.32565  0.91420  1.0000
  C   C14       1.0  0.73140  0.82565  0.58580  1.0000
  C   C15       1.0  0.23140  0.67435  0.08580  1.0000
  C   C16       1.0  0.26860  0.17435  0.41420  1.0000
  H   H9        1.0  0.87661  0.34605  0.92228  1.0000
  H   H10       1.0  0.62339  0.84605  0.57772  1.0000
  H   H11       1.0  0.12339  0.65395  0.07772  1.0000
  H   H12       1.0  0.37661  0.15395  0.42228  1.0000
  C   C17       1.0  0.62950  0.36189  0.86840  1.0000
  C   C18       1.0  0.87050  0.86189  0.63160  1.0000
  C   C19       1.0  0.37050  0.63811  0.13160  1.0000
  C   C20       1.0  0.12950  0.13811  0.36840  1.0000
  H   H13       1.0  0.64325  0.40632  0.84432  1.0000
  H   H14       1.0  0.85675  0.90632  0.65568  1.0000
  H   H15       1.0  0.35675  0.59368  0.15568  1.0000
  H   H16       1.0  0.14325  0.09368  0.34432  1.0000
  C   C21       1.0  0.89920  0.22133  0.99888  1.0000
  C   C22       1.0  0.60080  0.72133  0.50112  1.0000
  C   C23       1.0  0.10080  0.77867  0.00112  1.0000
  C   C24       1.0  0.39920  0.27867  0.49888  1.0000
  C   C25       1.0  0.88060  0.17288  0.06331  1.0000
  C   C26       1.0  0.61940  0.67288  0.43669  1.0000
  C   C27       1.0  0.11940  0.82712  0.93669  1.0000
  C   C28       1.0  0.38060  0.32712  0.56331  1.0000
  H   H17       1.0  0.77261  0.16400  0.07426  1.0000
  H   H18       1.0  0.72739  0.66400  0.42574  1.0000
  H   H19       1.0  0.22739  0.83600  0.92574  1.0000
  H   H20       1.0  0.27261  0.33600  0.57426  1.0000
  C   C29       1.0  0.01910  0.13761  0.11149  1.0000
  C   C30       1.0  0.48090  0.63761  0.38851  1.0000
  C   C31       1.0  0.98090  0.86239  0.88851  1.0000
  C   C32       1.0  0.51910  0.36239  0.61149  1.0000
  H   H21       1.0  0.00545  0.10514  0.15548  1.0000
  H   H22       1.0  0.49455  0.60514  0.34452  1.0000
  H   H23       1.0  0.99455  0.89486  0.84452  1.0000
  H   H24       1.0  0.50545  0.39486  0.65548  1.0000
  C   C33       1.0  0.17710  0.14983  0.09530  1.0000
  C   C34       1.0  0.32290  0.64983  0.40470  1.0000
  C   C35       1.0  0.82290  0.85017  0.90470  1.0000
  C   C36       1.0  0.67710  0.35017  0.59530  1.0000
  C   C37       1.0  0.19620  0.19703  0.03001  1.0000
  C   C38       1.0  0.30380  0.69703  0.46999  1.0000
  C   C39       1.0  0.80380  0.80297  0.96999  1.0000
  C   C40       1.0  0.69620  0.30297  0.53001  1.0000
  H   H25       1.0  0.30356  0.20452  0.01750  1.0000
  H   H26       1.0  0.19644  0.70452  0.48250  1.0000
  H   H27       1.0  0.69644  0.79548  0.98250  1.0000
  H   H28       1.0  0.80356  0.29548  0.51750  1.0000
  C   C41       1.0  0.05820  0.23310  0.98326  1.0000
  C   C42       1.0  0.44180  0.73310  0.51674  1.0000
  C   C43       1.0  0.94180  0.76690  0.01674  1.0000
  C   C44       1.0  0.55820  0.26690  0.48326  1.0000
  H   H29       1.0  0.07252  0.26620  0.94010  1.0000
  H   H30       1.0  0.42748  0.76620  0.55990  1.0000
  H   H31       1.0  0.92748  0.73380  0.05990  1.0000
  H   H32       1.0  0.57252  0.23380  0.44010  1.0000
  C   C45       1.0  0.32810  0.11463  0.14855  1.0000
  C   C46       1.0  0.17190  0.61463  0.35145  1.0000
  C   C47       1.0  0.67190  0.88537  0.85145  1.0000
  C   C48       1.0  0.82810  0.38537  0.64855  1.0000
  O   O1        1.0  0.30790  0.07345  0.21014  1.0000
  O   O2        1.0  0.19210  0.57345  0.28986  1.0000
  O   O3        1.0  0.69210  0.92655  0.78986  1.0000
  O   O4        1.0  0.80790  0.42655  0.71014  1.0000
  O   O5        1.0  0.47060  0.12484  0.13409  1.0000
  O   O6        1.0  0.02940  0.62484  0.36591  1.0000
  O   O7        1.0  0.52940  0.87516  0.86591  1.0000
  O   O8        1.0  0.97060  0.37516  0.63409  1.0000
  O   O9        1.0  0.17620  0.35426  0.81896  1.0000
  O   O10       1.0  0.32380  0.85426  0.68104  1.0000
  O   O11       1.0  0.82380  0.64574  0.18104  1.0000
  O   O12       1.0  0.67620  0.14574  0.31896  1.0000
  O   O13       1.0  0.33890  0.42938  0.77268  1.0000
  O   O14       1.0  0.16110  0.92938  0.72732  1.0000
  O   O15       1.0  0.66110  0.57062  0.22732  1.0000
  O   O16       1.0  0.83890  0.07062  0.27268  1.0000
  C   C49       1.0  0.31920  0.37367  0.81414  1.0000
  C   C50       1.0  0.18080  0.87367  0.68586  1.0000
  C   C51       1.0  0.68080  0.62633  0.18586  1.0000
  C   C52       1.0  0.81920  0.12633  0.31414  1.0000
  C   C53       1.0  0.47080  0.33325  0.85784  1.0000
  C   C54       1.0  0.02920  0.83325  0.64216  1.0000
  C   C55       1.0  0.52920  0.66675  0.14216  1.0000
  C   C56       1.0  0.97080  0.16675  0.35784  1.0000
