data_image0
_chemical_formula_structural       CoF8O10C8H4
_chemical_formula_sum              "Co1 F8 O10 C8 H4"
_cell_length_a       9.12
_cell_length_b       9.214
_cell_length_c       9.618
_cell_angle_alpha    70.046
_cell_angle_beta     87.725
_cell_angle_gamma    65.772

_space_group_name_H-M_alt    "P 1"
_space_group_IT_number       1

loop_
  _space_group_symop_operation_xyz
  'x, y, z'

loop_
  _atom_site_type_symbol
  _atom_site_label
  _atom_site_symmetry_multiplicity
  _atom_site_fract_x
  _atom_site_fract_y
  _atom_site_fract_z
  _atom_site_occupancy
  Co  Co1       1.0  0.50000  0.50000  0.00000  1.0000
  F   F1        1.0  0.62115  0.90713  0.17081  1.0000
  F   F2        1.0  0.37885  0.09287  0.82919  1.0000
  F   F3        1.0  0.37280  0.94598  0.12911  1.0000
  F   F4        1.0  0.62720  0.05402  0.87089  1.0000
  F   F5        1.0  0.40441  0.72092  0.45155  1.0000
  F   F6        1.0  0.59559  0.27908  0.54845  1.0000
  F   F7        1.0  0.65072  0.56444  0.42355  1.0000
  F   F8        1.0  0.34928  0.43556  0.57645  1.0000
  O   O1        1.0  0.28340  0.64320  0.25499  1.0000
  O   O2        1.0  0.71660  0.35680  0.74501  1.0000
  O   O3        1.0  0.52965  0.24457  0.07326  1.0000
  O   O4        1.0  0.47035  0.75543  0.92674  1.0000
  O   O5        1.0  0.27220  0.27270  0.06700  1.0000
  O   O6        1.0  0.72780  0.72730  0.93300  1.0000
  O   O7        1.0  0.53881  0.49340  0.21737  1.0000
  O   O8        1.0  0.46119  0.50660  0.78263  1.0000
  O   O9        1.0  0.75080  0.41130  0.99493  1.0000
  O   O10       1.0  0.24920  0.58870  0.00507  1.0000
  C   C1        1.0  0.43320  0.57080  0.28470  1.0000
  C   C2        1.0  0.56680  0.42920  0.71530  1.0000
  C   C3        1.0  0.49830  0.57320  0.43020  1.0000
  C   C4        1.0  0.50170  0.42680  0.56980  1.0000
  C   C5        1.0  0.42000  0.19530  0.07300  1.0000
  C   C6        1.0  0.58000  0.80470  0.92700  1.0000
  C   C7        1.0  0.48280  0.00950  0.07590  1.0000
  C   C8        1.0  0.51720  0.99050  0.92410  1.0000
  H   H1        1.0  0.76400  0.38600  0.92400  1.0000
  H   H2        1.0  0.23600  0.61400  0.07600  1.0000
  H   H3        1.0  0.75800  0.49700  0.97600  1.0000
  H   H4        1.0  0.24200  0.50300  0.02400  1.0000
