data_image0
_chemical_formula_structural       C4H6C4H6C4H6C4H6Cu3O16
_chemical_formula_sum              "C16 H24 Cu3 O16"
_cell_length_a       8.59
_cell_length_b       9.0259
_cell_length_c       12.4047
_cell_angle_alpha    94.507
_cell_angle_beta     94.617
_cell_angle_gamma    112.873

_space_group_name_H-M_alt    "P 1"
_space_group_IT_number       1

loop_
  _space_group_symop_operation_xyz
  'x, y, z'

loop_
  _atom_site_type_symbol
  _atom_site_label
  _atom_site_symmetry_multiplicity
  _atom_site_fract_x
  _atom_site_fract_y
  _atom_site_fract_z
  _atom_site_occupancy
  C   C1        1.0  0.97930  0.74490  0.90985  1.0000
  C   C2        1.0  0.02070  0.25510  0.09015  1.0000
  C   C3        1.0  0.02110  0.88890  0.84709  1.0000
  C   C4        1.0  0.97890  0.11110  0.15291  1.0000
  H   H1        1.0  0.92469  0.87139  0.79251  1.0000
  H   H2        1.0  0.07531  0.12861  0.20749  1.0000
  H   H3        1.0  0.12209  0.90278  0.81062  1.0000
  H   H4        1.0  0.87791  0.09722  0.18938  1.0000
  H   H5        1.0  0.04376  0.98635  0.89728  1.0000
  H   H6        1.0  0.95624  0.01365  0.10272  1.0000
  C   C5        1.0  0.78660  0.27530  0.81427  1.0000
  C   C6        1.0  0.21340  0.72470  0.18573  1.0000
  C   C7        1.0  0.94810  0.28820  0.76962  1.0000
  C   C8        1.0  0.05190  0.71180  0.23038  1.0000
  H   H7        1.0  0.98119  0.20242  0.79322  1.0000
  H   H8        1.0  0.01881  0.79758  0.20678  1.0000
  H   H9        1.0  0.03860  0.39413  0.79660  1.0000
  H   H10       1.0  0.96140  0.60587  0.20340  1.0000
  H   H11       1.0  0.92983  0.27663  0.68986  1.0000
  H   H12       1.0  0.07017  0.72337  0.31014  1.0000
  C   C9        1.0  0.71640  0.23180  0.42011  1.0000
  C   C10       1.0  0.28360  0.76820  0.57989  1.0000
  C   C11       1.0  0.83950  0.37050  0.37058  1.0000
  C   C12       1.0  0.16050  0.62950  0.62942  1.0000
  H   H13       1.0  0.85229  0.33237  0.29697  1.0000
  H   H14       1.0  0.14771  0.66763  0.70303  1.0000
  H   H15       1.0  0.95024  0.41361  0.41556  1.0000
  H   H16       1.0  0.04976  0.58639  0.58444  1.0000
  H   H17       1.0  0.79617  0.45587  0.36693  1.0000
  H   H18       1.0  0.20383  0.54413  0.63307  1.0000
  C   C13       1.0  0.70660  0.86020  0.50937  1.0000
  C   C14       1.0  0.29340  0.13980  0.49063  1.0000
  C   C15       1.0  0.83050  0.77870  0.51434  1.0000
  C   C16       1.0  0.16950  0.22130  0.48566  1.0000
  H   H19       1.0  0.91924  0.83224  0.57592  1.0000
  H   H20       1.0  0.08076  0.16776  0.42408  1.0000
  H   H21       1.0  0.88269  0.78649  0.44648  1.0000
  H   H22       1.0  0.11731  0.21351  0.55352  1.0000
  H   H23       1.0  0.76978  0.66441  0.52384  1.0000
  H   H24       1.0  0.23022  0.33559  0.47616  1.0000
  Cu  Cu1       1.0  0.00000  0.50000  1.00000  1.0000
  Cu  Cu2       1.0  0.56576  0.07687  0.59859  1.0000
  Cu  Cu3       1.0  0.43424  0.92313  0.40141  1.0000
  O   O1        1.0  0.06046  0.65406  0.89308  1.0000
  O   O2        1.0  0.93954  0.34594  0.10692  1.0000
  O   O3        1.0  0.87230  0.71936  0.97556  1.0000
  O   O4        1.0  0.12770  0.28064  0.02444  1.0000
  O   O5        1.0  0.79441  0.35129  0.90690  1.0000
  O   O6        1.0  0.20559  0.64871  0.09310  1.0000
  O   O7        1.0  0.64664  0.18777  0.76091  1.0000
  O   O8        1.0  0.35336  0.81223  0.23909  1.0000
  O   O9        1.0  0.72340  0.24493  0.52259  1.0000
  O   O10       1.0  0.27660  0.75507  0.47741  1.0000
  O   O11       1.0  0.61324  0.11307  0.35608  1.0000
  O   O12       1.0  0.38676  0.88693  0.64392  1.0000
  O   O13       1.0  0.71417  0.95517  0.59141  1.0000
  O   O14       1.0  0.28583  0.04483  0.40859  1.0000
  O   O15       1.0  0.60370  0.82629  0.42428  1.0000
  O   O16       1.0  0.39630  0.17371  0.57572  1.0000
