data_image0
_chemical_formula_structural       Cd6O36C18H18
_chemical_formula_sum              "Cd6 O36 C18 H18"
_cell_length_a       9.2172
_cell_length_b       9.2172
_cell_length_c       19.4982
_cell_angle_alpha    90
_cell_angle_beta     90
_cell_angle_gamma    120

_space_group_name_H-M_alt    "P 1"
_space_group_IT_number       1

loop_
  _space_group_symop_operation_xyz
  'x, y, z'

loop_
  _atom_site_type_symbol
  _atom_site_label
  _atom_site_symmetry_multiplicity
  _atom_site_fract_x
  _atom_site_fract_y
  _atom_site_fract_z
  _atom_site_occupancy
  Cd  Cd1       1.0  0.66670  0.33330  0.33330  1.0000
  Cd  Cd2       1.0  0.00003  0.99997  0.99997  1.0000
  Cd  Cd3       1.0  0.33337  0.66663  0.66663  1.0000
  Cd  Cd4       1.0  0.33340  0.66670  0.16670  1.0000
  Cd  Cd5       1.0  0.66673  0.33337  0.83337  1.0000
  Cd  Cd6       1.0  0.00007  0.00003  0.50003  1.0000
  O   O1        1.0  0.88450  0.53920  0.39437  1.0000
  O   O2        1.0  0.21783  0.20587  0.06104  1.0000
  O   O3        1.0  0.55117  0.87253  0.72770  1.0000
  O   O4        1.0  0.46080  0.34530  0.39437  1.0000
  O   O5        1.0  0.79413  0.01197  0.06104  1.0000
  O   O6        1.0  0.12747  0.67863  0.72770  1.0000
  O   O7        1.0  0.65470  0.11550  0.39437  1.0000
  O   O8        1.0  0.98803  0.78217  0.06104  1.0000
  O   O9        1.0  0.32137  0.44883  0.72770  1.0000
  O   O10       1.0  0.34530  0.46080  0.10563  1.0000
  O   O11       1.0  0.67863  0.12747  0.77230  1.0000
  O   O12       1.0  0.01197  0.79413  0.43896  1.0000
  O   O13       1.0  0.11550  0.65470  0.10563  1.0000
  O   O14       1.0  0.44883  0.32137  0.77230  1.0000
  O   O15       1.0  0.78217  0.98803  0.43896  1.0000
  O   O16       1.0  0.53920  0.88450  0.10563  1.0000
  O   O17       1.0  0.87253  0.55117  0.77230  1.0000
  O   O18       1.0  0.20587  0.21783  0.43896  1.0000
  O   O19       1.0  0.11550  0.46080  0.60563  1.0000
  O   O20       1.0  0.78217  0.79413  0.93896  1.0000
  O   O21       1.0  0.44883  0.12747  0.27230  1.0000
  O   O22       1.0  0.53920  0.65470  0.60563  1.0000
  O   O23       1.0  0.20587  0.98803  0.93896  1.0000
  O   O24       1.0  0.87253  0.32137  0.27230  1.0000
  O   O25       1.0  0.34530  0.88450  0.60563  1.0000
  O   O26       1.0  0.01197  0.21783  0.93896  1.0000
  O   O27       1.0  0.67863  0.55117  0.27230  1.0000
  O   O28       1.0  0.65470  0.53920  0.89437  1.0000
  O   O29       1.0  0.32137  0.87253  0.22770  1.0000
  O   O30       1.0  0.98803  0.20587  0.56104  1.0000
  O   O31       1.0  0.88450  0.34530  0.89437  1.0000
  O   O32       1.0  0.55117  0.67863  0.22770  1.0000
  O   O33       1.0  0.21783  0.01197  0.56104  1.0000
  O   O34       1.0  0.46080  0.11550  0.89437  1.0000
  O   O35       1.0  0.12747  0.44883  0.22770  1.0000
  O   O36       1.0  0.79413  0.78217  0.56104  1.0000
  C   C1        1.0  0.88710  0.66670  0.41670  1.0000
  C   C2        1.0  0.22043  0.33337  0.08337  1.0000
  C   C3        1.0  0.55377  0.00003  0.75003  1.0000
  C   C4        1.0  0.33330  0.22040  0.41670  1.0000
  C   C5        1.0  0.66663  0.88707  0.08337  1.0000
  C   C6        1.0  0.99997  0.55373  0.75003  1.0000
  C   C7        1.0  0.77960  0.11290  0.41670  1.0000
  C   C8        1.0  0.11293  0.77957  0.08337  1.0000
  C   C9        1.0  0.44627  0.44623  0.75003  1.0000
  C   C10       1.0  0.11290  0.33330  0.58330  1.0000
  C   C11       1.0  0.77957  0.66663  0.91663  1.0000
  C   C12       1.0  0.44623  0.99997  0.24997  1.0000
  C   C13       1.0  0.66670  0.77960  0.58330  1.0000
  C   C14       1.0  0.33337  0.11293  0.91663  1.0000
  C   C15       1.0  0.00003  0.44627  0.24997  1.0000
  C   C16       1.0  0.22040  0.88710  0.58330  1.0000
  C   C17       1.0  0.88707  0.22043  0.91663  1.0000
  C   C18       1.0  0.55373  0.55377  0.24997  1.0000
  H   H1        1.0  0.78180  0.66670  0.41670  1.0000
  H   H2        1.0  0.11513  0.33337  0.08337  1.0000
  H   H3        1.0  0.44847  0.00003  0.75003  1.0000
  H   H4        1.0  0.33330  0.11510  0.41670  1.0000
  H   H5        1.0  0.66663  0.78177  0.08337  1.0000
  H   H6        1.0  0.99997  0.44843  0.75003  1.0000
  H   H7        1.0  0.88490  0.21820  0.41670  1.0000
  H   H8        1.0  0.21823  0.88487  0.08337  1.0000
  H   H9        1.0  0.55157  0.55153  0.75003  1.0000
  H   H10       1.0  0.21820  0.33330  0.58330  1.0000
  H   H11       1.0  0.88487  0.66663  0.91663  1.0000
  H   H12       1.0  0.55153  0.99997  0.24997  1.0000
  H   H13       1.0  0.66670  0.88490  0.58330  1.0000
  H   H14       1.0  0.33337  0.21823  0.91663  1.0000
  H   H15       1.0  0.00003  0.55157  0.24997  1.0000
  H   H16       1.0  0.11510  0.78180  0.58330  1.0000
  H   H17       1.0  0.78177  0.11513  0.91663  1.0000
  H   H18       1.0  0.44843  0.44847  0.24997  1.0000
