data_image0
_chemical_formula_structural       Zn4C24H8C16O32
_chemical_formula_sum              "Zn4 C40 H8 O32"
_cell_length_a       9.854
_cell_length_b       10.925
_cell_length_c       16.3
_cell_angle_alpha    90
_cell_angle_beta     91.13
_cell_angle_gamma    90

_space_group_name_H-M_alt    "P 1"
_space_group_IT_number       1

loop_
  _space_group_symop_operation_xyz
  'x, y, z'

loop_
  _atom_site_type_symbol
  _atom_site_label
  _atom_site_symmetry_multiplicity
  _atom_site_fract_x
  _atom_site_fract_y
  _atom_site_fract_z
  _atom_site_occupancy
  Zn  Zn1       1.0  0.00000  0.97958  0.25000  1.0000
  Zn  Zn2       1.0  0.50000  0.47958  0.25000  1.0000
  Zn  Zn3       1.0  0.00000  0.02042  0.75000  1.0000
  Zn  Zn4       1.0  0.50000  0.52042  0.75000  1.0000
  C   C1        1.0  0.67960  0.28470  0.06990  1.0000
  C   C2        1.0  0.32040  0.28470  0.43010  1.0000
  C   C3        1.0  0.17960  0.78470  0.06990  1.0000
  C   C4        1.0  0.82040  0.78470  0.43010  1.0000
  C   C5        1.0  0.32040  0.71530  0.93010  1.0000
  C   C6        1.0  0.67960  0.71530  0.56990  1.0000
  C   C7        1.0  0.82040  0.21530  0.93010  1.0000
  C   C8        1.0  0.17960  0.21530  0.56990  1.0000
  C   C9        1.0  0.78500  0.20130  0.07730  1.0000
  C   C10       1.0  0.21500  0.20130  0.42270  1.0000
  C   C11       1.0  0.28500  0.70130  0.07730  1.0000
  C   C12       1.0  0.71500  0.70130  0.42270  1.0000
  C   C13       1.0  0.21500  0.79870  0.92270  1.0000
  C   C14       1.0  0.78500  0.79870  0.57730  1.0000
  C   C15       1.0  0.71500  0.29870  0.92270  1.0000
  C   C16       1.0  0.28500  0.29870  0.57730  1.0000
  C   C17       1.0  0.64500  0.33260  0.99320  1.0000
  C   C18       1.0  0.35500  0.33260  0.50680  1.0000
  C   C19       1.0  0.14500  0.83260  0.99320  1.0000
  C   C20       1.0  0.85500  0.83260  0.50680  1.0000
  C   C21       1.0  0.35500  0.66740  0.00680  1.0000
  C   C22       1.0  0.64500  0.66740  0.49320  1.0000
  C   C23       1.0  0.85500  0.16740  0.00680  1.0000
  C   C24       1.0  0.14500  0.16740  0.49320  1.0000
  H   H1        1.0  0.57390  0.38830  0.98860  1.0000
  H   H2        1.0  0.42610  0.38830  0.51140  1.0000
  H   H3        1.0  0.07390  0.88830  0.98860  1.0000
  H   H4        1.0  0.92610  0.88830  0.51140  1.0000
  H   H5        1.0  0.42610  0.61170  0.01140  1.0000
  H   H6        1.0  0.57390  0.61170  0.48860  1.0000
  H   H7        1.0  0.92610  0.11170  0.01140  1.0000
  H   H8        1.0  0.07390  0.11170  0.48860  1.0000
  C   C25       1.0  0.60090  0.33360  0.14150  1.0000
  C   C26       1.0  0.39910  0.33360  0.35850  1.0000
  C   C27       1.0  0.10090  0.83360  0.14150  1.0000
  C   C28       1.0  0.89910  0.83360  0.35850  1.0000
  C   C29       1.0  0.39910  0.66640  0.85850  1.0000
  C   C30       1.0  0.60090  0.66640  0.64150  1.0000
  C   C31       1.0  0.89910  0.16640  0.85850  1.0000
  C   C32       1.0  0.10090  0.16640  0.64150  1.0000
  C   C33       1.0  0.82400  0.14260  0.15850  1.0000
  C   C34       1.0  0.17600  0.14260  0.34150  1.0000
  C   C35       1.0  0.32400  0.64260  0.15850  1.0000
  C   C36       1.0  0.67600  0.64260  0.34150  1.0000
  C   C37       1.0  0.17600  0.85740  0.84150  1.0000
  C   C38       1.0  0.82400  0.85740  0.65850  1.0000
  C   C39       1.0  0.67600  0.35740  0.84150  1.0000
  C   C40       1.0  0.32400  0.35740  0.65850  1.0000
  O   O1        1.0  0.93660  0.09070  0.16190  1.0000
  O   O2        1.0  0.06340  0.09070  0.33810  1.0000
  O   O3        1.0  0.43660  0.59070  0.16190  1.0000
  O   O4        1.0  0.56340  0.59070  0.33810  1.0000
  O   O5        1.0  0.06340  0.90930  0.83810  1.0000
  O   O6        1.0  0.93660  0.90930  0.66190  1.0000
  O   O7        1.0  0.56340  0.40930  0.83810  1.0000
  O   O8        1.0  0.43660  0.40930  0.66190  1.0000
  O   O9        1.0  0.65600  0.41390  0.18550  1.0000
  O   O10       1.0  0.34400  0.41390  0.31450  1.0000
  O   O11       1.0  0.15600  0.91390  0.18550  1.0000
  O   O12       1.0  0.84400  0.91390  0.31450  1.0000
  O   O13       1.0  0.34400  0.58610  0.81450  1.0000
  O   O14       1.0  0.65600  0.58610  0.68550  1.0000
  O   O15       1.0  0.84400  0.08610  0.81450  1.0000
  O   O16       1.0  0.15600  0.08610  0.68550  1.0000
  O   O17       1.0  0.48360  0.30070  0.15020  1.0000
  O   O18       1.0  0.51640  0.30070  0.34980  1.0000
  O   O19       1.0  0.98360  0.80070  0.15020  1.0000
  O   O20       1.0  0.01640  0.80070  0.34980  1.0000
  O   O21       1.0  0.51640  0.69930  0.84980  1.0000
  O   O22       1.0  0.48360  0.69930  0.65020  1.0000
  O   O23       1.0  0.01640  0.19930  0.84980  1.0000
  O   O24       1.0  0.98360  0.19930  0.65020  1.0000
  O   O25       1.0  0.74290  0.14780  0.21420  1.0000
  O   O26       1.0  0.25710  0.14780  0.28580  1.0000
  O   O27       1.0  0.24290  0.64780  0.21420  1.0000
  O   O28       1.0  0.75710  0.64780  0.28580  1.0000
  O   O29       1.0  0.25710  0.85220  0.78580  1.0000
  O   O30       1.0  0.74290  0.85220  0.71420  1.0000
  O   O31       1.0  0.75710  0.35220  0.78580  1.0000
  O   O32       1.0  0.24290  0.35220  0.71420  1.0000
