data_image0
_chemical_formula_structural       Zn4N16O16C20H4C8H4C8H4
_chemical_formula_sum              "Zn4 N16 O16 C36 H12"
_cell_length_a       10.097
_cell_length_b       12.8101
_cell_length_c       10.9229
_cell_angle_alpha    90
_cell_angle_beta     102.581
_cell_angle_gamma    90

_space_group_name_H-M_alt    "P 1"
_space_group_IT_number       1

loop_
  _space_group_symop_operation_xyz
  'x, y, z'

loop_
  _atom_site_type_symbol
  _atom_site_label
  _atom_site_symmetry_multiplicity
  _atom_site_fract_x
  _atom_site_fract_y
  _atom_site_fract_z
  _atom_site_occupancy
  Zn  Zn1       1.0  0.73124  0.35523  0.27988  1.0000
  Zn  Zn2       1.0  0.26876  0.85523  0.22012  1.0000
  Zn  Zn3       1.0  0.26876  0.64477  0.72012  1.0000
  Zn  Zn4       1.0  0.73124  0.14477  0.77988  1.0000
  N   N1        1.0  0.25840  0.74110  0.57390  1.0000
  N   N2        1.0  0.74160  0.24110  0.92610  1.0000
  N   N3        1.0  0.74160  0.25890  0.42610  1.0000
  N   N4        1.0  0.25840  0.75890  0.07390  1.0000
  N   N5        1.0  0.26550  0.84620  0.58810  1.0000
  N   N6        1.0  0.73450  0.34620  0.91190  1.0000
  N   N7        1.0  0.73450  0.15380  0.41190  1.0000
  N   N8        1.0  0.26550  0.65380  0.08810  1.0000
  N   N9        1.0  0.28060  0.88590  0.48180  1.0000
  N   N10       1.0  0.71940  0.38590  0.01820  1.0000
  N   N11       1.0  0.71940  0.11410  0.51820  1.0000
  N   N12       1.0  0.28060  0.61410  0.98180  1.0000
  N   N13       1.0  0.28180  0.81070  0.39770  1.0000
  N   N14       1.0  0.71820  0.31070  0.10230  1.0000
  N   N15       1.0  0.71820  0.18930  0.60230  1.0000
  N   N16       1.0  0.28180  0.68930  0.89770  1.0000
  O   O1        1.0  0.88950  0.45280  0.30590  1.0000
  O   O2        1.0  0.11050  0.95280  0.19410  1.0000
  O   O3        1.0  0.11050  0.54720  0.69410  1.0000
  O   O4        1.0  0.88950  0.04720  0.80590  1.0000
  O   O5        1.0  0.00020  0.30630  0.28590  1.0000
  O   O6        1.0  0.99980  0.80630  0.21410  1.0000
  O   O7        1.0  0.99980  0.69370  0.71410  1.0000
  O   O8        1.0  0.00020  0.19370  0.78590  1.0000
  O   O9        1.0  0.47520  0.32540  0.24910  1.0000
  O   O10       1.0  0.52480  0.82540  0.25090  1.0000
  O   O11       1.0  0.52480  0.67460  0.75090  1.0000
  O   O12       1.0  0.47520  0.17460  0.74910  1.0000
  O   O13       1.0  0.59950  0.46670  0.30540  1.0000
  O   O14       1.0  0.40050  0.96670  0.19460  1.0000
  O   O15       1.0  0.40050  0.53330  0.69460  1.0000
  O   O16       1.0  0.59950  0.03330  0.80540  1.0000
  C   C1        1.0  0.99660  0.40100  0.30370  1.0000
  C   C2        1.0  0.00340  0.90100  0.19630  1.0000
  C   C3        1.0  0.00340  0.59900  0.69630  1.0000
  C   C4        1.0  0.99660  0.09900  0.80370  1.0000
  C   C5        1.0  0.48670  0.41660  0.28610  1.0000
  C   C6        1.0  0.51330  0.91660  0.21390  1.0000
  C   C7        1.0  0.51330  0.58340  0.71390  1.0000
  C   C8        1.0  0.48670  0.08340  0.78610  1.0000
  C   C9        1.0  0.26780  0.72290  0.45780  1.0000
  C   C10       1.0  0.73220  0.22290  0.04220  1.0000
  C   C11       1.0  0.73220  0.27710  0.54220  1.0000
  C   C12       1.0  0.26780  0.77710  0.95780  1.0000
  C   C13       1.0  0.12860  0.46300  0.32930  1.0000
  C   C14       1.0  0.87140  0.96300  0.17070  1.0000
  C   C15       1.0  0.87140  0.53700  0.67070  1.0000
  C   C16       1.0  0.12860  0.03700  0.82930  1.0000
  C   C17       1.0  0.24220  0.41740  0.29820  1.0000
  C   C18       1.0  0.75780  0.91740  0.20180  1.0000
  C   C19       1.0  0.75780  0.58260  0.70180  1.0000
  C   C20       1.0  0.24220  0.08260  0.79820  1.0000
  H   H1        1.0  0.23560  0.35110  0.26290  1.0000
  H   H2        1.0  0.76440  0.85110  0.23710  1.0000
  H   H3        1.0  0.76440  0.64890  0.73710  1.0000
  H   H4        1.0  0.23560  0.14890  0.76290  1.0000
  C   C21       1.0  0.36560  0.47060  0.31970  1.0000
  C   C22       1.0  0.63440  0.97060  0.18030  1.0000
  C   C23       1.0  0.63440  0.52940  0.68030  1.0000
  C   C24       1.0  0.36560  0.02940  0.81970  1.0000
  C   C25       1.0  0.37520  0.57150  0.36960  1.0000
  C   C26       1.0  0.62480  0.07150  0.13040  1.0000
  C   C27       1.0  0.62480  0.42850  0.63040  1.0000
  C   C28       1.0  0.37520  0.92850  0.86960  1.0000
  H   H5        1.0  0.45680  0.60780  0.38200  1.0000
  H   H6        1.0  0.54320  0.10780  0.11800  1.0000
  H   H7        1.0  0.54320  0.39220  0.61800  1.0000
  H   H8        1.0  0.45680  0.89220  0.88200  1.0000
  C   C29       1.0  0.26050  0.61770  0.40090  1.0000
  C   C30       1.0  0.73950  0.11770  0.09910  1.0000
  C   C31       1.0  0.73950  0.38230  0.59910  1.0000
  C   C32       1.0  0.26050  0.88230  0.90090  1.0000
  C   C33       1.0  0.13770  0.56310  0.38000  1.0000
  C   C34       1.0  0.86230  0.06310  0.12000  1.0000
  C   C35       1.0  0.86230  0.43690  0.62000  1.0000
  C   C36       1.0  0.13770  0.93690  0.88000  1.0000
  H   H9        1.0  0.06170  0.59380  0.40000  1.0000
  H   H10       1.0  0.93830  0.09380  0.10000  1.0000
  H   H11       1.0  0.93830  0.40620  0.60000  1.0000
  H   H12       1.0  0.06170  0.90620  0.90000  1.0000
