data_image0
_chemical_formula_structural       U4S6O32C6H2C2H2C10H2C2H2C10H2C2H2C4
_chemical_formula_sum              "U4 S6 O32 C36 H12"
_cell_length_a       13.7804
_cell_length_b       15.5944
_cell_length_c       18.0932
_cell_angle_alpha    67.6388
_cell_angle_beta     69.388
_cell_angle_gamma    76.7394

_space_group_name_H-M_alt    "P 1"
_space_group_IT_number       1

loop_
  _space_group_symop_operation_xyz
  'x, y, z'

loop_
  _atom_site_type_symbol
  _atom_site_label
  _atom_site_symmetry_multiplicity
  _atom_site_fract_x
  _atom_site_fract_y
  _atom_site_fract_z
  _atom_site_occupancy
  U   U1        1.0  0.36668  0.24738  0.06867  1.0000
  U   U2        1.0  0.63332  0.75262  0.93133  1.0000
  U   U3        1.0  0.69748  0.58964  0.41398  1.0000
  U   U4        1.0  0.30252  0.41036  0.58602  1.0000
  S   S1        1.0  0.52390  0.41678  0.73803  1.0000
  S   S2        1.0  0.47610  0.58322  0.26197  1.0000
  S   S3        1.0  0.03890  0.42220  0.24700  1.0000
  S   S4        1.0  0.96110  0.57780  0.75300  1.0000
  S   S5        1.0  0.54190  0.92260  0.23594  1.0000
  S   S6        1.0  0.45810  0.07740  0.76406  1.0000
  O   O1        1.0  0.45740  0.30020  0.08300  1.0000
  O   O2        1.0  0.54260  0.69980  0.91700  1.0000
  O   O3        1.0  0.28000  0.19260  0.05330  1.0000
  O   O4        1.0  0.72000  0.80740  0.94670  1.0000
  O   O5        1.0  0.77060  0.65460  0.43310  1.0000
  O   O6        1.0  0.22940  0.34540  0.56690  1.0000
  O   O7        1.0  0.62400  0.52430  0.39570  1.0000
  O   O8        1.0  0.37600  0.47570  0.60430  1.0000
  O   O9        1.0  0.45570  0.29610  0.91770  1.0000
  O   O10       1.0  0.54430  0.70390  0.08230  1.0000
  O   O11       1.0  0.33230  0.39800  0.96300  1.0000
  O   O12       1.0  0.66770  0.60200  0.03700  1.0000
  O   O13       1.0  0.64320  0.49180  0.56000  1.0000
  O   O14       1.0  0.35680  0.50820  0.44000  1.0000
  O   O15       1.0  0.55240  0.62870  0.52970  1.0000
  O   O16       1.0  0.44760  0.37130  0.47030  1.0000
  O   O17       1.0  0.21420  0.34790  0.12580  1.0000
  O   O18       1.0  0.78580  0.65210  0.87420  1.0000
  O   O19       1.0  0.26170  0.22000  0.21680  1.0000
  O   O20       1.0  0.73830  0.78000  0.78320  1.0000
  O   O21       1.0  0.85600  0.53590  0.31840  1.0000
  O   O22       1.0  0.14400  0.46410  0.68160  1.0000
  O   O23       1.0  0.82590  0.44940  0.45040  1.0000
  O   O24       1.0  0.17410  0.55060  0.54960  1.0000
  O   O25       1.0  0.59410  0.73590  0.35540  1.0000
  O   O26       1.0  0.40590  0.26410  0.64460  1.0000
  O   O27       1.0  0.72890  0.69050  0.26450  1.0000
  O   O28       1.0  0.27110  0.30950  0.73550  1.0000
  O   O29       1.0  0.42470  0.10070  0.16530  1.0000
  O   O30       1.0  0.57530  0.89930  0.83470  1.0000
  O   O31       1.0  0.51010  0.12480  0.03280  1.0000
  O   O32       1.0  0.48990  0.87520  0.96720  1.0000
  C   C1        1.0  0.40600  0.37710  0.90300  1.0000
  C   C2        1.0  0.59400  0.62290  0.09700  1.0000
  C   C3        1.0  0.43170  0.44600  0.82100  1.0000
  C   C4        1.0  0.56830  0.55400  0.17900  1.0000
  C   C5        1.0  0.39470  0.53980  0.79660  1.0000
  C   C6        1.0  0.60530  0.46020  0.20340  1.0000
  H   H1        1.0  0.34440  0.56990  0.83320  1.0000
  H   H2        1.0  0.65560  0.43010  0.16680  1.0000
  C   C7        1.0  0.44070  0.58510  0.71120  1.0000
  C   C8        1.0  0.55930  0.41490  0.28880  1.0000
  H   H3        1.0  0.42430  0.64940  0.68360  1.0000
  H   H4        1.0  0.57570  0.35060  0.31640  1.0000
  C   C9        1.0  0.51040  0.52820  0.67230  1.0000
  C   C10       1.0  0.48960  0.47180  0.32770  1.0000
  C   C11       1.0  0.57070  0.54980  0.58340  1.0000
  C   C12       1.0  0.42930  0.45020  0.41660  1.0000
  C   C13       1.0  0.20120  0.29470  0.20130  1.0000
  C   C14       1.0  0.79880  0.70530  0.79870  1.0000
  C   C15       1.0  0.11860  0.31970  0.26880  1.0000
  C   C16       1.0  0.88140  0.68030  0.73120  1.0000
  C   C17       1.0  0.09430  0.27220  0.35220  1.0000
  C   C18       1.0  0.90570  0.72780  0.64780  1.0000
  H   H5        1.0  0.13130  0.21450  0.37580  1.0000
  H   H6        1.0  0.86870  0.78550  0.62420  1.0000
  C   C19       1.0  0.00920  0.31630  0.40060  1.0000
  C   C20       1.0  0.99080  0.68370  0.59940  1.0000
  H   H7        1.0  0.98190  0.29200  0.45970  1.0000
  H   H8        1.0  0.01810  0.70800  0.54030  1.0000
  C   C21       1.0  0.97020  0.39990  0.35080  1.0000
  C   C22       1.0  0.02980  0.60010  0.64920  1.0000
  C   C23       1.0  0.88000  0.46470  0.37470  1.0000
  C   C24       1.0  0.12000  0.53530  0.62530  1.0000
  C   C25       1.0  0.65180  0.74750  0.28080  1.0000
  C   C26       1.0  0.34820  0.25250  0.71920  1.0000
  C   C27       1.0  0.62770  0.83040  0.21200  1.0000
  C   C28       1.0  0.37230  0.16960  0.78800  1.0000
  C   C29       1.0  0.66530  0.84480  0.12810  1.0000
  C   C30       1.0  0.33470  0.15520  0.87190  1.0000
  H   H9        1.0  0.71280  0.80140  0.10370  1.0000
  H   H10       1.0  0.28720  0.19860  0.89630  1.0000
  C   C31       1.0  0.62360  0.93400  0.08180  1.0000
  C   C32       1.0  0.37640  0.06600  0.91820  1.0000
  H   H11       1.0  0.64050  0.95660  0.02250  1.0000
  H   H12       1.0  0.35950  0.04340  0.97750  1.0000
  C   C33       1.0  0.55700  0.98290  0.13170  1.0000
  C   C34       1.0  0.44300  0.01710  0.86830  1.0000
  C   C35       1.0  0.49360  0.07520  0.10810  1.0000
  C   C36       1.0  0.50640  0.92480  0.89190  1.0000
