data_image0
_chemical_formula_structural       Zn28P24N24C24H48C48H48C24H72O120
_chemical_formula_sum              "Zn28 P24 N24 C96 H168 O120"
_cell_length_a       22.592
_cell_length_b       22.592
_cell_length_c       22.592
_cell_angle_alpha    90
_cell_angle_beta     90
_cell_angle_gamma    90

_space_group_name_H-M_alt    "P 1"
_space_group_IT_number       1

loop_
  _space_group_symop_operation_xyz
  'x, y, z'

loop_
  _atom_site_type_symbol
  _atom_site_label
  _atom_site_symmetry_multiplicity
  _atom_site_fract_x
  _atom_site_fract_y
  _atom_site_fract_z
  _atom_site_occupancy
  Zn  Zn1       1.0  0.00000  0.50000  0.00000  1.0000
  Zn  Zn2       1.0  0.00000  0.00000  0.50000  1.0000
  Zn  Zn3       1.0  0.50000  0.00000  0.00000  1.0000
  Zn  Zn4       1.0  0.50000  0.50000  0.50000  1.0000
  Zn  Zn5       1.0  0.92517  0.44238  0.13408  1.0000
  Zn  Zn6       1.0  0.13408  0.92517  0.44238  1.0000
  Zn  Zn7       1.0  0.44238  0.13408  0.92517  1.0000
  Zn  Zn8       1.0  0.57483  0.05762  0.13408  1.0000
  Zn  Zn9       1.0  0.57483  0.44238  0.36592  1.0000
  Zn  Zn10      1.0  0.92517  0.05762  0.36592  1.0000
  Zn  Zn11      1.0  0.13408  0.57483  0.05762  1.0000
  Zn  Zn12      1.0  0.36592  0.57483  0.44238  1.0000
  Zn  Zn13      1.0  0.36592  0.92517  0.05762  1.0000
  Zn  Zn14      1.0  0.05762  0.13408  0.57483  1.0000
  Zn  Zn15      1.0  0.44238  0.36592  0.57483  1.0000
  Zn  Zn16      1.0  0.05762  0.36592  0.92517  1.0000
  Zn  Zn17      1.0  0.07483  0.55762  0.86592  1.0000
  Zn  Zn18      1.0  0.86592  0.07483  0.55762  1.0000
  Zn  Zn19      1.0  0.55762  0.86592  0.07483  1.0000
  Zn  Zn20      1.0  0.42517  0.94238  0.86592  1.0000
  Zn  Zn21      1.0  0.42517  0.55762  0.63408  1.0000
  Zn  Zn22      1.0  0.07483  0.94238  0.63408  1.0000
  Zn  Zn23      1.0  0.86592  0.42517  0.94238  1.0000
  Zn  Zn24      1.0  0.63408  0.42517  0.55762  1.0000
  Zn  Zn25      1.0  0.63408  0.07483  0.94238  1.0000
  Zn  Zn26      1.0  0.94238  0.86592  0.42517  1.0000
  Zn  Zn27      1.0  0.55762  0.63408  0.42517  1.0000
  Zn  Zn28      1.0  0.94238  0.63408  0.07483  1.0000
  P   P1        1.0  0.02232  0.54245  0.13627  1.0000
  P   P2        1.0  0.13627  0.02232  0.54245  1.0000
  P   P3        1.0  0.54245  0.13627  0.02232  1.0000
  P   P4        1.0  0.47768  0.95755  0.13627  1.0000
  P   P5        1.0  0.47768  0.54245  0.36373  1.0000
  P   P6        1.0  0.02232  0.95755  0.36373  1.0000
  P   P7        1.0  0.13627  0.47768  0.95755  1.0000
  P   P8        1.0  0.36373  0.47768  0.54245  1.0000
  P   P9        1.0  0.36373  0.02232  0.95755  1.0000
  P   P10       1.0  0.95755  0.13627  0.47768  1.0000
  P   P11       1.0  0.54245  0.36373  0.47768  1.0000
  P   P12       1.0  0.95755  0.36373  0.02232  1.0000
  P   P13       1.0  0.97768  0.45755  0.86373  1.0000
  P   P14       1.0  0.86373  0.97768  0.45755  1.0000
  P   P15       1.0  0.45755  0.86373  0.97768  1.0000
  P   P16       1.0  0.52232  0.04245  0.86373  1.0000
  P   P17       1.0  0.52232  0.45755  0.63627  1.0000
  P   P18       1.0  0.97768  0.04245  0.63627  1.0000
  P   P19       1.0  0.86373  0.52232  0.04245  1.0000
  P   P20       1.0  0.63627  0.52232  0.45755  1.0000
  P   P21       1.0  0.63627  0.97768  0.04245  1.0000
  P   P22       1.0  0.04245  0.86373  0.52232  1.0000
  P   P23       1.0  0.45755  0.63627  0.52232  1.0000
  P   P24       1.0  0.04245  0.63627  0.97768  1.0000
  N   N1        1.0  0.95810  0.47850  0.21540  1.0000
  N   N2        1.0  0.21540  0.95810  0.47850  1.0000
  N   N3        1.0  0.47850  0.21540  0.95810  1.0000
  N   N4        1.0  0.54190  0.02150  0.21540  1.0000
  N   N5        1.0  0.54190  0.47850  0.28460  1.0000
  N   N6        1.0  0.95810  0.02150  0.28460  1.0000
  N   N7        1.0  0.21540  0.54190  0.02150  1.0000
  N   N8        1.0  0.28460  0.54190  0.47850  1.0000
  N   N9        1.0  0.28460  0.95810  0.02150  1.0000
  N   N10       1.0  0.02150  0.21540  0.54190  1.0000
  N   N11       1.0  0.47850  0.28460  0.54190  1.0000
  N   N12       1.0  0.02150  0.28460  0.95810  1.0000
  N   N13       1.0  0.04190  0.52150  0.78460  1.0000
  N   N14       1.0  0.78460  0.04190  0.52150  1.0000
  N   N15       1.0  0.52150  0.78460  0.04190  1.0000
  N   N16       1.0  0.45810  0.97850  0.78460  1.0000
  N   N17       1.0  0.45810  0.52150  0.71540  1.0000
  N   N18       1.0  0.04190  0.97850  0.71540  1.0000
  N   N19       1.0  0.78460  0.45810  0.97850  1.0000
  N   N20       1.0  0.71540  0.45810  0.52150  1.0000
  N   N21       1.0  0.71540  0.04190  0.97850  1.0000
  N   N22       1.0  0.97850  0.78460  0.45810  1.0000
  N   N23       1.0  0.52150  0.71540  0.45810  1.0000
  N   N24       1.0  0.97850  0.71540  0.04190  1.0000
  C   C1        1.0  0.96020  0.42900  0.25780  1.0000
  C   C2        1.0  0.25780  0.96020  0.42900  1.0000
  C   C3        1.0  0.42900  0.25780  0.96020  1.0000
  C   C4        1.0  0.53980  0.07100  0.25780  1.0000
  C   C5        1.0  0.53980  0.42900  0.24220  1.0000
  C   C6        1.0  0.96020  0.07100  0.24220  1.0000
  C   C7        1.0  0.25780  0.53980  0.07100  1.0000
  C   C8        1.0  0.24220  0.53980  0.42900  1.0000
  C   C9        1.0  0.24220  0.96020  0.07100  1.0000
  C   C10       1.0  0.07100  0.25780  0.53980  1.0000
  C   C11       1.0  0.42900  0.24220  0.53980  1.0000
  C   C12       1.0  0.07100  0.24220  0.96020  1.0000
  C   C13       1.0  0.03980  0.57100  0.74220  1.0000
  C   C14       1.0  0.74220  0.03980  0.57100  1.0000
  C   C15       1.0  0.57100  0.74220  0.03980  1.0000
  C   C16       1.0  0.46020  0.92900  0.74220  1.0000
  C   C17       1.0  0.46020  0.57100  0.75780  1.0000
  C   C18       1.0  0.03980  0.92900  0.75780  1.0000
  C   C19       1.0  0.74220  0.46020  0.92900  1.0000
  C   C20       1.0  0.75780  0.46020  0.57100  1.0000
  C   C21       1.0  0.75780  0.03980  0.92900  1.0000
  C   C22       1.0  0.92900  0.74220  0.46020  1.0000
  C   C23       1.0  0.57100  0.75780  0.46020  1.0000
  C   C24       1.0  0.92900  0.75780  0.03980  1.0000
  H   H1        1.0  0.95440  0.44410  0.29760  1.0000
  H   H2        1.0  0.29760  0.95440  0.44410  1.0000
  H   H3        1.0  0.44410  0.29760  0.95440  1.0000
  H   H4        1.0  0.54560  0.05590  0.29760  1.0000
  H   H5        1.0  0.54560  0.44410  0.20240  1.0000
  H   H6        1.0  0.95440  0.05590  0.20240  1.0000
  H   H7        1.0  0.29760  0.54560  0.05590  1.0000
  H   H8        1.0  0.20240  0.54560  0.44410  1.0000
  H   H9        1.0  0.20240  0.95440  0.05590  1.0000
  H   H10       1.0  0.05590  0.29760  0.54560  1.0000
  H   H11       1.0  0.44410  0.20240  0.54560  1.0000
  H   H12       1.0  0.05590  0.20240  0.95440  1.0000
  H   H13       1.0  0.04560  0.55590  0.70240  1.0000
  H   H14       1.0  0.70240  0.04560  0.55590  1.0000
  H   H15       1.0  0.55590  0.70240  0.04560  1.0000
  H   H16       1.0  0.45440  0.94410  0.70240  1.0000
  H   H17       1.0  0.45440  0.55590  0.79760  1.0000
  H   H18       1.0  0.04560  0.94410  0.79760  1.0000
  H   H19       1.0  0.70240  0.45440  0.94410  1.0000
  H   H20       1.0  0.79760  0.45440  0.55590  1.0000
  H   H21       1.0  0.79760  0.04560  0.94410  1.0000
  H   H22       1.0  0.94410  0.70240  0.45440  1.0000
  H   H23       1.0  0.55590  0.79760  0.45440  1.0000
  H   H24       1.0  0.94410  0.79760  0.04560  1.0000
  H   H25       1.0  0.99900  0.41060  0.25620  1.0000
  H   H26       1.0  0.25620  0.99900  0.41060  1.0000
  H   H27       1.0  0.41060  0.25620  0.99900  1.0000
  H   H28       1.0  0.50100  0.08940  0.25620  1.0000
  H   H29       1.0  0.50100  0.41060  0.24380  1.0000
  H   H30       1.0  0.99900  0.08940  0.24380  1.0000
  H   H31       1.0  0.25620  0.50100  0.08940  1.0000
  H   H32       1.0  0.24380  0.50100  0.41060  1.0000
  H   H33       1.0  0.24380  0.99900  0.08940  1.0000
  H   H34       1.0  0.08940  0.25620  0.50100  1.0000
  H   H35       1.0  0.41060  0.24380  0.50100  1.0000
  H   H36       1.0  0.08940  0.24380  0.99900  1.0000
  H   H37       1.0  0.00100  0.58940  0.74380  1.0000
  H   H38       1.0  0.74380  0.00100  0.58940  1.0000
  H   H39       1.0  0.58940  0.74380  0.00100  1.0000
  H   H40       1.0  0.49900  0.91060  0.74380  1.0000
  H   H41       1.0  0.49900  0.58940  0.75620  1.0000
  H   H42       1.0  0.00100  0.91060  0.75620  1.0000
  H   H43       1.0  0.74380  0.49900  0.91060  1.0000
  H   H44       1.0  0.75620  0.49900  0.58940  1.0000
  H   H45       1.0  0.75620  0.00100  0.91060  1.0000
  H   H46       1.0  0.91060  0.74380  0.49900  1.0000
  H   H47       1.0  0.58940  0.75620  0.49900  1.0000
  H   H48       1.0  0.91060  0.75620  0.00100  1.0000
  C   C25       1.0  0.91290  0.38240  0.24450  1.0000
  C   C26       1.0  0.24450  0.91290  0.38240  1.0000
  C   C27       1.0  0.38240  0.24450  0.91290  1.0000
  C   C28       1.0  0.58710  0.11760  0.24450  1.0000
  C   C29       1.0  0.58710  0.38240  0.25550  1.0000
  C   C30       1.0  0.91290  0.11760  0.25550  1.0000
  C   C31       1.0  0.24450  0.58710  0.11760  1.0000
  C   C32       1.0  0.25550  0.58710  0.38240  1.0000
  C   C33       1.0  0.25550  0.91290  0.11760  1.0000
  C   C34       1.0  0.11760  0.24450  0.58710  1.0000
  C   C35       1.0  0.38240  0.25550  0.58710  1.0000
  C   C36       1.0  0.11760  0.25550  0.91290  1.0000
  C   C37       1.0  0.08710  0.61760  0.75550  1.0000
  C   C38       1.0  0.75550  0.08710  0.61760  1.0000
  C   C39       1.0  0.61760  0.75550  0.08710  1.0000
  C   C40       1.0  0.41290  0.88240  0.75550  1.0000
  C   C41       1.0  0.41290  0.61760  0.74450  1.0000
  C   C42       1.0  0.08710  0.88240  0.74450  1.0000
  C   C43       1.0  0.75550  0.41290  0.88240  1.0000
  C   C44       1.0  0.74450  0.41290  0.61760  1.0000
  C   C45       1.0  0.74450  0.08710  0.88240  1.0000
  C   C46       1.0  0.88240  0.75550  0.41290  1.0000
  C   C47       1.0  0.61760  0.74450  0.41290  1.0000
  C   C48       1.0  0.88240  0.74450  0.08710  1.0000
  C   C49       1.0  0.01720  0.50700  0.20740  1.0000
  C   C50       1.0  0.20740  0.01720  0.50700  1.0000
  C   C51       1.0  0.50700  0.20740  0.01720  1.0000
  C   C52       1.0  0.48280  0.99300  0.20740  1.0000
  C   C53       1.0  0.48280  0.50700  0.29260  1.0000
  C   C54       1.0  0.01720  0.99300  0.29260  1.0000
  C   C55       1.0  0.20740  0.48280  0.99300  1.0000
  C   C56       1.0  0.29260  0.48280  0.50700  1.0000
  C   C57       1.0  0.29260  0.01720  0.99300  1.0000
  C   C58       1.0  0.99300  0.20740  0.48280  1.0000
  C   C59       1.0  0.50700  0.29260  0.48280  1.0000
  C   C60       1.0  0.99300  0.29260  0.01720  1.0000
  C   C61       1.0  0.98280  0.49300  0.79260  1.0000
  C   C62       1.0  0.79260  0.98280  0.49300  1.0000
  C   C63       1.0  0.49300  0.79260  0.98280  1.0000
  C   C64       1.0  0.51720  0.00700  0.79260  1.0000
  C   C65       1.0  0.51720  0.49300  0.70740  1.0000
  C   C66       1.0  0.98280  0.00700  0.70740  1.0000
  C   C67       1.0  0.79260  0.51720  0.00700  1.0000
  C   C68       1.0  0.70740  0.51720  0.49300  1.0000
  C   C69       1.0  0.70740  0.98280  0.00700  1.0000
  C   C70       1.0  0.00700  0.79260  0.51720  1.0000
  C   C71       1.0  0.49300  0.70740  0.51720  1.0000
  C   C72       1.0  0.00700  0.70740  0.98280  1.0000
  H   H49       1.0  0.04800  0.47720  0.21070  1.0000
  H   H50       1.0  0.21070  0.04800  0.47720  1.0000
  H   H51       1.0  0.47720  0.21070  0.04800  1.0000
  H   H52       1.0  0.45200  0.02280  0.21070  1.0000
  H   H53       1.0  0.45200  0.47720  0.28930  1.0000
  H   H54       1.0  0.04800  0.02280  0.28930  1.0000
  H   H55       1.0  0.21070  0.45200  0.02280  1.0000
  H   H56       1.0  0.28930  0.45200  0.47720  1.0000
  H   H57       1.0  0.28930  0.04800  0.02280  1.0000
  H   H58       1.0  0.02280  0.21070  0.45200  1.0000
  H   H59       1.0  0.47720  0.28930  0.45200  1.0000
  H   H60       1.0  0.02280  0.28930  0.04800  1.0000
  H   H61       1.0  0.95200  0.52280  0.78930  1.0000
  H   H62       1.0  0.78930  0.95200  0.52280  1.0000
  H   H63       1.0  0.52280  0.78930  0.95200  1.0000
  H   H64       1.0  0.54800  0.97720  0.78930  1.0000
  H   H65       1.0  0.54800  0.52280  0.71070  1.0000
  H   H66       1.0  0.95200  0.97720  0.71070  1.0000
  H   H67       1.0  0.78930  0.54800  0.97720  1.0000
  H   H68       1.0  0.71070  0.54800  0.52280  1.0000
  H   H69       1.0  0.71070  0.95200  0.97720  1.0000
  H   H70       1.0  0.97720  0.78930  0.54800  1.0000
  H   H71       1.0  0.52280  0.71070  0.54800  1.0000
  H   H72       1.0  0.97720  0.71070  0.95200  1.0000
  H   H73       1.0  0.02340  0.53610  0.23830  1.0000
  H   H74       1.0  0.23830  0.02340  0.53610  1.0000
  H   H75       1.0  0.53610  0.23830  0.02340  1.0000
  H   H76       1.0  0.47660  0.96390  0.23830  1.0000
  H   H77       1.0  0.47660  0.53610  0.26170  1.0000
  H   H78       1.0  0.02340  0.96390  0.26170  1.0000
  H   H79       1.0  0.23830  0.47660  0.96390  1.0000
  H   H80       1.0  0.26170  0.47660  0.53610  1.0000
  H   H81       1.0  0.26170  0.02340  0.96390  1.0000
  H   H82       1.0  0.96390  0.23830  0.47660  1.0000
  H   H83       1.0  0.53610  0.26170  0.47660  1.0000
  H   H84       1.0  0.96390  0.26170  0.02340  1.0000
  H   H85       1.0  0.97660  0.46390  0.76170  1.0000
  H   H86       1.0  0.76170  0.97660  0.46390  1.0000
  H   H87       1.0  0.46390  0.76170  0.97660  1.0000
  H   H88       1.0  0.52340  0.03610  0.76170  1.0000
  H   H89       1.0  0.52340  0.46390  0.73830  1.0000
  H   H90       1.0  0.97660  0.03610  0.73830  1.0000
  H   H91       1.0  0.76170  0.52340  0.03610  1.0000
  H   H92       1.0  0.73830  0.52340  0.46390  1.0000
  H   H93       1.0  0.73830  0.97660  0.03610  1.0000
  H   H94       1.0  0.03610  0.76170  0.52340  1.0000
  H   H95       1.0  0.46390  0.73830  0.52340  1.0000
  H   H96       1.0  0.03610  0.73830  0.97660  1.0000
  C   C73       1.0  0.91440  0.52260  0.23560  1.0000
  C   C74       1.0  0.23560  0.91440  0.52260  1.0000
  C   C75       1.0  0.52260  0.23560  0.91440  1.0000
  C   C76       1.0  0.58560  0.97740  0.23560  1.0000
  C   C77       1.0  0.58560  0.52260  0.26440  1.0000
  C   C78       1.0  0.91440  0.97740  0.26440  1.0000
  C   C79       1.0  0.23560  0.58560  0.97740  1.0000
  C   C80       1.0  0.26440  0.58560  0.52260  1.0000
  C   C81       1.0  0.26440  0.91440  0.97740  1.0000
  C   C82       1.0  0.97740  0.23560  0.58560  1.0000
  C   C83       1.0  0.52260  0.26440  0.58560  1.0000
  C   C84       1.0  0.97740  0.26440  0.91440  1.0000
  C   C85       1.0  0.08560  0.47740  0.76440  1.0000
  C   C86       1.0  0.76440  0.08560  0.47740  1.0000
  C   C87       1.0  0.47740  0.76440  0.08560  1.0000
  C   C88       1.0  0.41440  0.02260  0.76440  1.0000
  C   C89       1.0  0.41440  0.47740  0.73560  1.0000
  C   C90       1.0  0.08560  0.02260  0.73560  1.0000
  C   C91       1.0  0.76440  0.41440  0.02260  1.0000
  C   C92       1.0  0.73560  0.41440  0.47740  1.0000
  C   C93       1.0  0.73560  0.08560  0.02260  1.0000
  C   C94       1.0  0.02260  0.76440  0.41440  1.0000
  C   C95       1.0  0.47740  0.73560  0.41440  1.0000
  C   C96       1.0  0.02260  0.73560  0.08560  1.0000
  H   H97       1.0  0.92760  0.53990  0.27210  1.0000
  H   H98       1.0  0.27210  0.92760  0.53990  1.0000
  H   H99       1.0  0.53990  0.27210  0.92760  1.0000
  H   H100      1.0  0.57240  0.96010  0.27210  1.0000
  H   H101      1.0  0.57240  0.53990  0.22790  1.0000
  H   H102      1.0  0.92760  0.96010  0.22790  1.0000
  H   H103      1.0  0.27210  0.57240  0.96010  1.0000
  H   H104      1.0  0.22790  0.57240  0.53990  1.0000
  H   H105      1.0  0.22790  0.92760  0.96010  1.0000
  H   H106      1.0  0.96010  0.27210  0.57240  1.0000
  H   H107      1.0  0.53990  0.22790  0.57240  1.0000
  H   H108      1.0  0.96010  0.22790  0.92760  1.0000
  H   H109      1.0  0.07240  0.46010  0.72790  1.0000
  H   H110      1.0  0.72790  0.07240  0.46010  1.0000
  H   H111      1.0  0.46010  0.72790  0.07240  1.0000
  H   H112      1.0  0.42760  0.03990  0.72790  1.0000
  H   H113      1.0  0.42760  0.46010  0.77210  1.0000
  H   H114      1.0  0.07240  0.03990  0.77210  1.0000
  H   H115      1.0  0.72790  0.42760  0.03990  1.0000
  H   H116      1.0  0.77210  0.42760  0.46010  1.0000
  H   H117      1.0  0.77210  0.07240  0.03990  1.0000
  H   H118      1.0  0.03990  0.72790  0.42760  1.0000
  H   H119      1.0  0.46010  0.77210  0.42760  1.0000
  H   H120      1.0  0.03990  0.77210  0.07240  1.0000
  H   H121      1.0  0.87690  0.50360  0.24170  1.0000
  H   H122      1.0  0.24170  0.87690  0.50360  1.0000
  H   H123      1.0  0.50360  0.24170  0.87690  1.0000
  H   H124      1.0  0.62310  0.99640  0.24170  1.0000
  H   H125      1.0  0.62310  0.50360  0.25830  1.0000
  H   H126      1.0  0.87690  0.99640  0.25830  1.0000
  H   H127      1.0  0.24170  0.62310  0.99640  1.0000
  H   H128      1.0  0.25830  0.62310  0.50360  1.0000
  H   H129      1.0  0.25830  0.87690  0.99640  1.0000
  H   H130      1.0  0.99640  0.24170  0.62310  1.0000
  H   H131      1.0  0.50360  0.25830  0.62310  1.0000
  H   H132      1.0  0.99640  0.25830  0.87690  1.0000
  H   H133      1.0  0.12310  0.49640  0.75830  1.0000
  H   H134      1.0  0.75830  0.12310  0.49640  1.0000
  H   H135      1.0  0.49640  0.75830  0.12310  1.0000
  H   H136      1.0  0.37690  0.00360  0.75830  1.0000
  H   H137      1.0  0.37690  0.49640  0.74170  1.0000
  H   H138      1.0  0.12310  0.00360  0.74170  1.0000
  H   H139      1.0  0.75830  0.37690  0.00360  1.0000
  H   H140      1.0  0.74170  0.37690  0.49640  1.0000
  H   H141      1.0  0.74170  0.12310  0.00360  1.0000
  H   H142      1.0  0.00360  0.75830  0.37690  1.0000
  H   H143      1.0  0.49640  0.74170  0.37690  1.0000
  H   H144      1.0  0.00360  0.74170  0.12310  1.0000
  H   H145      1.0  0.91030  0.55300  0.20610  1.0000
  H   H146      1.0  0.20610  0.91030  0.55300  1.0000
  H   H147      1.0  0.55300  0.20610  0.91030  1.0000
  H   H148      1.0  0.58970  0.94700  0.20610  1.0000
  H   H149      1.0  0.58970  0.55300  0.29390  1.0000
  H   H150      1.0  0.91030  0.94700  0.29390  1.0000
  H   H151      1.0  0.20610  0.58970  0.94700  1.0000
  H   H152      1.0  0.29390  0.58970  0.55300  1.0000
  H   H153      1.0  0.29390  0.91030  0.94700  1.0000
  H   H154      1.0  0.94700  0.20610  0.58970  1.0000
  H   H155      1.0  0.55300  0.29390  0.58970  1.0000
  H   H156      1.0  0.94700  0.29390  0.91030  1.0000
  H   H157      1.0  0.08970  0.44700  0.79390  1.0000
  H   H158      1.0  0.79390  0.08970  0.44700  1.0000
  H   H159      1.0  0.44700  0.79390  0.08970  1.0000
  H   H160      1.0  0.41030  0.05300  0.79390  1.0000
  H   H161      1.0  0.41030  0.44700  0.70610  1.0000
  H   H162      1.0  0.08970  0.05300  0.70610  1.0000
  H   H163      1.0  0.79390  0.41030  0.05300  1.0000
  H   H164      1.0  0.70610  0.41030  0.44700  1.0000
  H   H165      1.0  0.70610  0.08970  0.05300  1.0000
  H   H166      1.0  0.05300  0.79390  0.41030  1.0000
  H   H167      1.0  0.44700  0.70610  0.41030  1.0000
  H   H168      1.0  0.05300  0.70610  0.08970  1.0000
  O   O1        1.0  0.88730  0.38510  0.19630  1.0000
  O   O2        1.0  0.19630  0.88730  0.38510  1.0000
  O   O3        1.0  0.38510  0.19630  0.88730  1.0000
  O   O4        1.0  0.61270  0.11490  0.19630  1.0000
  O   O5        1.0  0.61270  0.38510  0.30370  1.0000
  O   O6        1.0  0.88730  0.11490  0.30370  1.0000
  O   O7        1.0  0.19630  0.61270  0.11490  1.0000
  O   O8        1.0  0.30370  0.61270  0.38510  1.0000
  O   O9        1.0  0.30370  0.88730  0.11490  1.0000
  O   O10       1.0  0.11490  0.19630  0.61270  1.0000
  O   O11       1.0  0.38510  0.30370  0.61270  1.0000
  O   O12       1.0  0.11490  0.30370  0.88730  1.0000
  O   O13       1.0  0.11270  0.61490  0.80370  1.0000
  O   O14       1.0  0.80370  0.11270  0.61490  1.0000
  O   O15       1.0  0.61490  0.80370  0.11270  1.0000
  O   O16       1.0  0.38730  0.88510  0.80370  1.0000
  O   O17       1.0  0.38730  0.61490  0.69630  1.0000
  O   O18       1.0  0.11270  0.88510  0.69630  1.0000
  O   O19       1.0  0.80370  0.38730  0.88510  1.0000
  O   O20       1.0  0.69630  0.38730  0.61490  1.0000
  O   O21       1.0  0.69630  0.11270  0.88510  1.0000
  O   O22       1.0  0.88510  0.80370  0.38730  1.0000
  O   O23       1.0  0.61490  0.69630  0.38730  1.0000
  O   O24       1.0  0.88510  0.69630  0.11270  1.0000
  O   O25       1.0  0.90590  0.34330  0.28320  1.0000
  O   O26       1.0  0.28320  0.90590  0.34330  1.0000
  O   O27       1.0  0.34330  0.28320  0.90590  1.0000
  O   O28       1.0  0.59410  0.15670  0.28320  1.0000
  O   O29       1.0  0.59410  0.34330  0.21680  1.0000
  O   O30       1.0  0.90590  0.15670  0.21680  1.0000
  O   O31       1.0  0.28320  0.59410  0.15670  1.0000
  O   O32       1.0  0.21680  0.59410  0.34330  1.0000
  O   O33       1.0  0.21680  0.90590  0.15670  1.0000
  O   O34       1.0  0.15670  0.28320  0.59410  1.0000
  O   O35       1.0  0.34330  0.21680  0.59410  1.0000
  O   O36       1.0  0.15670  0.21680  0.90590  1.0000
  O   O37       1.0  0.09410  0.65670  0.71680  1.0000
  O   O38       1.0  0.71680  0.09410  0.65670  1.0000
  O   O39       1.0  0.65670  0.71680  0.09410  1.0000
  O   O40       1.0  0.40590  0.84330  0.71680  1.0000
  O   O41       1.0  0.40590  0.65670  0.78320  1.0000
  O   O42       1.0  0.09410  0.84330  0.78320  1.0000
  O   O43       1.0  0.71680  0.40590  0.84330  1.0000
  O   O44       1.0  0.78320  0.40590  0.65670  1.0000
  O   O45       1.0  0.78320  0.09410  0.84330  1.0000
  O   O46       1.0  0.84330  0.71680  0.40590  1.0000
  O   O47       1.0  0.65670  0.78320  0.40590  1.0000
  O   O48       1.0  0.84330  0.78320  0.09410  1.0000
  O   O49       1.0  0.94860  0.37290  0.08840  1.0000
  O   O50       1.0  0.08840  0.94860  0.37290  1.0000
  O   O51       1.0  0.37290  0.08840  0.94860  1.0000
  O   O52       1.0  0.55140  0.12710  0.08840  1.0000
  O   O53       1.0  0.55140  0.37290  0.41160  1.0000
  O   O54       1.0  0.94860  0.12710  0.41160  1.0000
  O   O55       1.0  0.08840  0.55140  0.12710  1.0000
  O   O56       1.0  0.41160  0.55140  0.37290  1.0000
  O   O57       1.0  0.41160  0.94860  0.12710  1.0000
  O   O58       1.0  0.12710  0.08840  0.55140  1.0000
  O   O59       1.0  0.37290  0.41160  0.55140  1.0000
  O   O60       1.0  0.12710  0.41160  0.94860  1.0000
  O   O61       1.0  0.05140  0.62710  0.91160  1.0000
  O   O62       1.0  0.91160  0.05140  0.62710  1.0000
  O   O63       1.0  0.62710  0.91160  0.05140  1.0000
  O   O64       1.0  0.44860  0.87290  0.91160  1.0000
  O   O65       1.0  0.44860  0.62710  0.58840  1.0000
  O   O66       1.0  0.05140  0.87290  0.58840  1.0000
  O   O67       1.0  0.91160  0.44860  0.87290  1.0000
  O   O68       1.0  0.58840  0.44860  0.62710  1.0000
  O   O69       1.0  0.58840  0.05140  0.87290  1.0000
  O   O70       1.0  0.87290  0.91160  0.44860  1.0000
  O   O71       1.0  0.62710  0.58840  0.44860  1.0000
  O   O72       1.0  0.87290  0.58840  0.05140  1.0000
  O   O73       1.0  0.86100  0.48850  0.09980  1.0000
  O   O74       1.0  0.09980  0.86100  0.48850  1.0000
  O   O75       1.0  0.48850  0.09980  0.86100  1.0000
  O   O76       1.0  0.63900  0.01150  0.09980  1.0000
  O   O77       1.0  0.63900  0.48850  0.40020  1.0000
  O   O78       1.0  0.86100  0.01150  0.40020  1.0000
  O   O79       1.0  0.09980  0.63900  0.01150  1.0000
  O   O80       1.0  0.40020  0.63900  0.48850  1.0000
  O   O81       1.0  0.40020  0.86100  0.01150  1.0000
  O   O82       1.0  0.01150  0.09980  0.63900  1.0000
  O   O83       1.0  0.48850  0.40020  0.63900  1.0000
  O   O84       1.0  0.01150  0.40020  0.86100  1.0000
  O   O85       1.0  0.13900  0.51150  0.90020  1.0000
  O   O86       1.0  0.90020  0.13900  0.51150  1.0000
  O   O87       1.0  0.51150  0.90020  0.13900  1.0000
  O   O88       1.0  0.36100  0.98850  0.90020  1.0000
  O   O89       1.0  0.36100  0.51150  0.59980  1.0000
  O   O90       1.0  0.13900  0.98850  0.59980  1.0000
  O   O91       1.0  0.90020  0.36100  0.98850  1.0000
  O   O92       1.0  0.59980  0.36100  0.51150  1.0000
  O   O93       1.0  0.59980  0.13900  0.98850  1.0000
  O   O94       1.0  0.98850  0.90020  0.36100  1.0000
  O   O95       1.0  0.51150  0.59980  0.36100  1.0000
  O   O96       1.0  0.98850  0.59980  0.13900  1.0000
  O   O97       1.0  0.99490  0.49730  0.09350  1.0000
  O   O98       1.0  0.09350  0.99490  0.49730  1.0000
  O   O99       1.0  0.49730  0.09350  0.99490  1.0000
  O   O100      1.0  0.50510  0.00270  0.09350  1.0000
  O   O101      1.0  0.50510  0.49730  0.40650  1.0000
  O   O102      1.0  0.99490  0.00270  0.40650  1.0000
  O   O103      1.0  0.09350  0.50510  0.00270  1.0000
  O   O104      1.0  0.40650  0.50510  0.49730  1.0000
  O   O105      1.0  0.40650  0.99490  0.00270  1.0000
  O   O106      1.0  0.00270  0.09350  0.50510  1.0000
  O   O107      1.0  0.49730  0.40650  0.50510  1.0000
  O   O108      1.0  0.00270  0.40650  0.99490  1.0000
  O   O109      1.0  0.00510  0.50270  0.90650  1.0000
  O   O110      1.0  0.90650  0.00510  0.50270  1.0000
  O   O111      1.0  0.50270  0.90650  0.00510  1.0000
  O   O112      1.0  0.49490  0.99730  0.90650  1.0000
  O   O113      1.0  0.49490  0.50270  0.59350  1.0000
  O   O114      1.0  0.00510  0.99730  0.59350  1.0000
  O   O115      1.0  0.90650  0.49490  0.99730  1.0000
  O   O116      1.0  0.59350  0.49490  0.50270  1.0000
  O   O117      1.0  0.59350  0.00510  0.99730  1.0000
  O   O118      1.0  0.99730  0.90650  0.49490  1.0000
  O   O119      1.0  0.50270  0.59350  0.49490  1.0000
  O   O120      1.0  0.99730  0.59350  0.00510  1.0000
