data_image0
_chemical_formula_structural       Sn4O16S4C3HCHC5HCHC4HCHCHCHCHC2HCHCHCHCHC2HCHCHCHCHC2HCHCHCHCHC2HCHCHCHCHC2HCHCHCHCHC3HCHC5HCHC4HCHCHCHCHC2HCHCHCHCHC2HCHCHCHCHC2HCHCHCHCHC2HCHCHCHCHC2HCHCHCHCH
_chemical_formula_sum              "Sn4 O16 S4 C96 H68"
_cell_length_a       9.66
_cell_length_b       18.35
_cell_length_c       18.76
_cell_angle_alpha    61.5
_cell_angle_beta     90
_cell_angle_gamma    89.89

_space_group_name_H-M_alt    "P 1"
_space_group_IT_number       1

loop_
  _space_group_symop_operation_xyz
  'x, y, z'

loop_
  _atom_site_type_symbol
  _atom_site_label
  _atom_site_symmetry_multiplicity
  _atom_site_fract_x
  _atom_site_fract_y
  _atom_site_fract_z
  _atom_site_occupancy
  Sn  Sn1       1.0  0.29267  0.73029  0.50366  1.0000
  Sn  Sn2       1.0  0.78364  0.77020  0.99580  1.0000
  Sn  Sn3       1.0  0.70692  0.27017  0.49598  1.0000
  Sn  Sn4       1.0  0.19816  0.23025  0.00364  1.0000
  O   O1        1.0  0.39930  0.78230  0.38170  1.0000
  O   O2        1.0  0.51000  0.87700  0.40140  1.0000
  O   O3        1.0  0.68700  0.80930  0.08140  1.0000
  O   O4        1.0  0.89090  0.85660  0.09850  1.0000
  O   O5        1.0  0.18360  0.67310  0.61940  1.0000
  O   O6        1.0  0.22140  0.78340  0.63650  1.0000
  O   O7        1.0  0.86960  0.72790  0.91160  1.0000
  O   O8        1.0  0.82040  0.59250  0.97790  1.0000
  O   O9        1.0  0.80490  0.31020  0.58080  1.0000
  O   O10       1.0  0.60040  0.35740  0.59870  1.0000
  O   O11       1.0  0.09300  0.28160  0.88110  1.0000
  O   O12       1.0  0.97910  0.37800  0.90010  1.0000
  O   O13       1.0  0.62120  0.22750  0.41170  1.0000
  O   O14       1.0  0.66970  0.09380  0.47760  1.0000
  O   O15       1.0  0.30700  0.17210  0.12060  1.0000
  O   O16       1.0  0.26780  0.28220  0.13850  1.0000
  S   S1        1.0  0.57440  0.80020  0.24236  1.0000
  S   S2        1.0  0.02980  0.73101  0.77842  1.0000
  S   S3        1.0  0.91580  0.29985  0.74252  1.0000
  S   S4        1.0  0.46150  0.23077  0.27896  1.0000
  C   C1        1.0  0.48930  0.83890  0.36320  1.0000
  C   C2        1.0  0.57420  0.86000  0.29060  1.0000
  C   C3        1.0  0.66610  0.92380  0.25460  1.0000
  H   H1        1.0  0.68040  0.96320  0.27170  1.0000
  C   C4        1.0  0.73810  0.92380  0.18780  1.0000
  H   H2        1.0  0.80370  0.96310  0.15660  1.0000
  C   C5        1.0  0.69970  0.86030  0.17560  1.0000
  C   C6        1.0  0.76460  0.84190  0.11420  1.0000
  C   C7        1.0  0.16800  0.71380  0.65960  1.0000
  C   C8        1.0  0.08240  0.67450  0.73420  1.0000
  C   C9        1.0  0.03690  0.59300  0.77790  1.0000
  H   H3        1.0  0.05630  0.55240  0.76310  1.0000
  C   C10       1.0  0.95880  0.57790  0.84690  1.0000
  H   H4        1.0  0.92090  0.52670  0.88230  1.0000
  C   C11       1.0  0.94510  0.64670  0.85580  1.0000
  C   C12       1.0  0.87240  0.65500  0.91940  1.0000
  C   C13       1.0  0.49250  0.69600  0.56160  1.0000
  C   C14       1.0  0.51560  0.68550  0.63760  1.0000
  H   H5        1.0  0.44620  0.69580  0.66600  1.0000
  C   C15       1.0  0.64780  0.65850  0.67190  1.0000
  H   H6        1.0  0.66450  0.65120  0.72370  1.0000
  C   C16       1.0  0.74910  0.64300  0.63370  1.0000
  H   H7        1.0  0.83540  0.62620  0.65820  1.0000
  C   C17       1.0  0.72730  0.65160  0.56040  1.0000
  H   H8        1.0  0.79860  0.63980  0.53420  1.0000
  C   C18       1.0  0.59660  0.67840  0.52100  1.0000
  H   H9        1.0  0.58150  0.68390  0.46970  1.0000
  C   C19       1.0  0.21170  0.63240  0.48500  1.0000
  C   C20       1.0  0.09080  0.59130  0.52120  1.0000
  H   H10       1.0  0.04500  0.60550  0.55640  1.0000
  C   C21       1.0  0.03480  0.52950  0.50720  1.0000
  H   H11       1.0  0.95400  0.50200  0.53290  1.0000
  C   C22       1.0  0.10570  0.50980  0.45190  1.0000
  H   H12       1.0  0.06830  0.47080  0.43920  1.0000
  C   C23       1.0  0.22410  0.54640  0.41840  1.0000
  H   H13       1.0  0.27260  0.52920  0.38630  1.0000
  C   C24       1.0  0.27710  0.61000  0.43060  1.0000
  H   H14       1.0  0.35610  0.63810  0.40270  1.0000
  C   C25       1.0  0.15280  0.83330  0.45460  1.0000
  C   C26       1.0  0.19240  0.91640  0.41260  1.0000
  H   H15       1.0  0.28550  0.93070  0.40780  1.0000
  C   C27       1.0  0.09090  0.97760  0.37800  1.0000
  H   H16       1.0  0.11690  0.03310  0.35100  1.0000
  C   C28       1.0  0.95430  0.95740  0.38310  1.0000
  H   H17       1.0  0.88870  0.99930  0.35850  1.0000
  C   C29       1.0  0.91150  0.87680  0.42370  1.0000
  H   H18       1.0  0.81800  0.86340  0.42740  1.0000
  C   C30       1.0  0.01150  0.81570  0.45900  1.0000
  H   H19       1.0  0.98340  0.76060  0.48680  1.0000
  C   C31       1.0  0.90810  0.68180  0.09290  1.0000
  C   C32       1.0  0.85920  0.63920  0.17130  1.0000
  H   H20       1.0  0.76960  0.64870  0.18310  1.0000
  C   C33       1.0  0.94330  0.58220  0.23250  1.0000
  H   H21       1.0  0.90990  0.55230  0.28520  1.0000
  C   C34       1.0  0.07880  0.57020  0.21410  1.0000
  H   H22       1.0  0.13520  0.53220  0.25530  1.0000
  C   C35       1.0  0.12900  0.61120  0.14010  1.0000
  H   H23       1.0  0.21970  0.60280  0.12900  1.0000
  C   C36       1.0  0.04180  0.66830  0.07810  1.0000
  H   H24       1.0  0.07640  0.69750  0.02560  1.0000
  C   C37       1.0  0.85650  0.89240  0.91020  1.0000
  C   C38       1.0  0.94740  0.90450  0.84910  1.0000
  H   H25       1.0  0.97830  0.85840  0.84540  1.0000
  C   C39       1.0  0.99490  0.98120  0.79330  1.0000
  H   H26       1.0  0.05530  0.98670  0.75250  1.0000
  C   C40       1.0  0.95180  0.04960  0.79870  1.0000
  H   H27       1.0  0.98400  0.10200  0.76200  1.0000
  C   C41       1.0  0.85860  0.04010  0.86030  1.0000
  H   H28       1.0  0.82840  0.08600  0.86460  1.0000
  C   C42       1.0  0.81220  0.96080  0.91480  1.0000
  H   H29       1.0  0.74970  0.95440  0.95510  1.0000
  C   C43       1.0  0.57890  0.74770  0.97160  1.0000
  C   C44       1.0  0.48530  0.80730  0.93960  1.0000
  H   H30       1.0  0.50750  0.85910  0.93390  1.0000
  C   C45       1.0  0.35010  0.79630  0.91290  1.0000
  H   H31       1.0  0.29020  0.84110  0.88680  1.0000
  C   C46       1.0  0.31400  0.72400  0.92570  1.0000
  H   H32       1.0  0.22580  0.71560  0.91170  1.0000
  C   C47       1.0  0.40000  0.66400  0.95800  1.0000
  H   H33       1.0  0.37420  0.61250  0.96420  1.0000
  C   C48       1.0  0.52950  0.67250  0.98320  1.0000
  H   H34       1.0  0.58580  0.62590  0.00910  1.0000
  C   C49       1.0  0.72440  0.33910  0.61510  1.0000
  C   C50       1.0  0.79060  0.35960  0.67470  1.0000
  C   C51       1.0  0.75290  0.42360  0.68770  1.0000
  H   H35       1.0  0.68680  0.46310  0.65680  1.0000
  C   C52       1.0  0.82480  0.42390  0.75340  1.0000
  H   H36       1.0  0.81200  0.46460  0.76890  1.0000
  C   C53       1.0  0.91410  0.35950  0.79200  1.0000
  C   C54       1.0  0.00140  0.33890  0.86290  1.0000
  C   C55       1.0  0.61770  0.15590  0.42050  1.0000
  C   C56       1.0  0.54280  0.14710  0.35510  1.0000
  C   C57       1.0  0.53130  0.07830  0.34560  1.0000
  H   H37       1.0  0.57160  0.02740  0.38000  1.0000
  C   C58       1.0  0.45190  0.09360  0.27790  1.0000
  H   H38       1.0  0.43020  0.05330  0.26320  1.0000
  C   C59       1.0  0.41000  0.17270  0.23630  1.0000
  C   C60       1.0  0.32160  0.21610  0.15820  1.0000
  C   C61       1.0  0.63340  0.39080  0.41160  1.0000
  C   C62       1.0  0.54190  0.40390  0.35050  1.0000
  H   H39       1.0  0.50770  0.35800  0.34750  1.0000
  C   C63       1.0  0.49730  0.48330  0.29210  1.0000
  H   H40       1.0  0.43950  0.48980  0.24980  1.0000
  C   C64       1.0  0.54100  0.55110  0.29870  1.0000
  H   H41       1.0  0.50870  0.60360  0.26220  1.0000
  C   C65       1.0  0.62940  0.54220  0.35710  1.0000
  H   H42       1.0  0.66090  0.58820  0.36060  1.0000
  C   C66       1.0  0.67460  0.46120  0.41370  1.0000
  H   H43       1.0  0.73550  0.45560  0.45440  1.0000
  C   C67       1.0  0.91380  0.24640  0.47380  1.0000
  C   C68       1.0  0.99970  0.31510  0.43620  1.0000
  H   H44       1.0  0.97010  0.36630  0.42930  1.0000
  C   C69       1.0  0.13210  0.30950  0.41090  1.0000
  H   H45       1.0  0.19120  0.35490  0.39060  1.0000
  C   C70       1.0  0.17280  0.23820  0.41610  1.0000
  H   H46       1.0  0.25750  0.23530  0.39390  1.0000
  C   C71       1.0  0.09330  0.16920  0.45320  1.0000
  H   H47       1.0  0.12330  0.12020  0.45510  1.0000
  C   C72       1.0  0.96070  0.17100  0.49020  1.0000
  H   H48       1.0  0.91200  0.12280  0.52310  1.0000
  C   C73       1.0  0.58220  0.18230  0.59230  1.0000
  C   C74       1.0  0.44710  0.16580  0.57970  1.0000
  H   H49       1.0  0.41290  0.19340  0.52700  1.0000
  C   C75       1.0  0.36130  0.11260  0.63840  1.0000
  H   H50       1.0  0.27070  0.10520  0.62630  1.0000
  C   C76       1.0  0.40950  0.07130  0.71360  1.0000
  H   H51       1.0  0.35190  0.03460  0.75480  1.0000
  C   C77       1.0  0.54360  0.08180  0.73130  1.0000
  H   H52       1.0  0.57710  0.05080  0.78390  1.0000
  C   C78       1.0  0.63050  0.13950  0.67030  1.0000
  H   H53       1.0  0.71980  0.14850  0.68290  1.0000
  C   C79       1.0  0.27920  0.13360  0.98260  1.0000
  C   C80       1.0  0.21290  0.10870  0.93210  1.0000
  H   H54       1.0  0.13050  0.13450  0.90700  1.0000
  C   C81       1.0  0.26480  0.04820  0.91830  1.0000
  H   H55       1.0  0.21810  0.03340  0.88370  1.0000
  C   C82       1.0  0.38490  0.00850  0.95440  1.0000
  H   H56       1.0  0.41940  0.96630  0.94520  1.0000
  C   C83       1.0  0.45440  0.03150  0.00430  1.0000
  H   H57       1.0  0.53890  0.00660  0.02650  1.0000
  C   C84       1.0  0.40100  0.09130  0.02240  1.0000
  H   H58       1.0  0.44480  0.10300  0.05990  1.0000
  C   C85       1.0  0.99960  0.19770  0.06150  1.0000
  C   C86       1.0  0.89350  0.17760  0.02390  1.0000
  H   H59       1.0  0.91250  0.18150  0.97360  1.0000
  C   C87       1.0  0.76690  0.15320  0.05390  1.0000
  H   H60       1.0  0.69990  0.14320  0.02410  1.0000
  C   C88       1.0  0.73870  0.14380  0.12530  1.0000
  H   H61       1.0  0.65010  0.12750  0.14620  1.0000
  C   C89       1.0  0.83860  0.15760  0.17200  1.0000
  H   H62       1.0  0.81870  0.14960  0.22370  1.0000
  C   C90       1.0  0.97540  0.18510  0.13550  1.0000
  H   H63       1.0  0.04540  0.19360  0.16470  1.0000
  C   C91       1.0  0.33650  0.33370  0.95500  1.0000
  C   C92       1.0  0.29780  0.41690  0.91330  1.0000
  H   H64       1.0  0.20490  0.43170  0.90910  1.0000
  C   C93       1.0  0.39840  0.47760  0.87810  1.0000
  H   H65       1.0  0.37090  0.53280  0.85110  1.0000
  C   C94       1.0  0.53480  0.45960  0.88140  1.0000
  H   H66       1.0  0.59960  0.50170  0.85650  1.0000
  C   C95       1.0  0.57720  0.37610  0.92330  1.0000
  H   H67       1.0  0.67040  0.36220  0.92600  1.0000
  C   C96       1.0  0.47730  0.31440  0.96070  1.0000
  H   H68       1.0  0.50510  0.25930  0.99000  1.0000
