data_image0
_chemical_formula_structural       U4O32C8O8C40H8C8H8C8H8
_chemical_formula_sum              "U4 O40 C64 H24"
_cell_length_a       15.5552
_cell_length_b       8.238
_cell_length_c       18.2882
_cell_angle_alpha    90
_cell_angle_beta     111.251
_cell_angle_gamma    90

_space_group_name_H-M_alt    "P 1"
_space_group_IT_number       1

loop_
  _space_group_symop_operation_xyz
  'x, y, z'

loop_
  _atom_site_type_symbol
  _atom_site_label
  _atom_site_symmetry_multiplicity
  _atom_site_fract_x
  _atom_site_fract_y
  _atom_site_fract_z
  _atom_site_occupancy
  U   U1        1.0  0.50000  0.86467  0.25000  1.0000
  U   U2        1.0  0.00000  0.36467  0.25000  1.0000
  U   U3        1.0  0.50000  0.13533  0.75000  1.0000
  U   U4        1.0  0.00000  0.63533  0.75000  1.0000
  O   O1        1.0  0.57732  0.07000  0.33318  1.0000
  O   O2        1.0  0.42268  0.07000  0.16682  1.0000
  O   O3        1.0  0.07732  0.57000  0.33318  1.0000
  O   O4        1.0  0.92268  0.57000  0.16682  1.0000
  O   O5        1.0  0.42268  0.93000  0.66682  1.0000
  O   O6        1.0  0.57732  0.93000  0.83318  1.0000
  O   O7        1.0  0.92268  0.43000  0.66682  1.0000
  O   O8        1.0  0.07732  0.43000  0.83318  1.0000
  O   O9        1.0  0.41816  0.66870  0.16549  1.0000
  O   O10       1.0  0.58184  0.66870  0.33451  1.0000
  O   O11       1.0  0.91816  0.16870  0.16549  1.0000
  O   O12       1.0  0.08184  0.16870  0.33451  1.0000
  O   O13       1.0  0.58184  0.33130  0.83451  1.0000
  O   O14       1.0  0.41816  0.33130  0.66549  1.0000
  O   O15       1.0  0.08184  0.83130  0.83451  1.0000
  O   O16       1.0  0.91816  0.83130  0.66549  1.0000
  O   O17       1.0  0.71277  0.18610  0.39354  1.0000
  O   O18       1.0  0.28723  0.18610  0.10646  1.0000
  O   O19       1.0  0.21277  0.68610  0.39354  1.0000
  O   O20       1.0  0.78723  0.68610  0.10646  1.0000
  O   O21       1.0  0.28723  0.81390  0.60646  1.0000
  O   O22       1.0  0.71277  0.81390  0.89354  1.0000
  O   O23       1.0  0.78723  0.31390  0.60646  1.0000
  O   O24       1.0  0.21277  0.31390  0.89354  1.0000
  O   O25       1.0  0.58200  0.86740  0.20304  1.0000
  O   O26       1.0  0.41800  0.86740  0.29696  1.0000
  O   O27       1.0  0.08200  0.36740  0.20304  1.0000
  O   O28       1.0  0.91800  0.36740  0.29696  1.0000
  O   O29       1.0  0.41800  0.13260  0.79696  1.0000
  O   O30       1.0  0.58200  0.13260  0.70304  1.0000
  O   O31       1.0  0.91800  0.63260  0.79696  1.0000
  O   O32       1.0  0.08200  0.63260  0.70304  1.0000
  C   C1        1.0  0.53650  0.36750  0.23203  1.0000
  C   C2        1.0  0.46350  0.36750  0.26797  1.0000
  C   C3        1.0  0.03650  0.86750  0.23203  1.0000
  C   C4        1.0  0.96350  0.86750  0.26797  1.0000
  C   C5        1.0  0.46350  0.63250  0.76797  1.0000
  C   C6        1.0  0.53650  0.63250  0.73203  1.0000
  C   C7        1.0  0.96350  0.13250  0.76797  1.0000
  C   C8        1.0  0.03650  0.13250  0.73203  1.0000
  O   O33       1.0  0.38679  0.52560  0.05597  1.0000
  O   O34       1.0  0.61321  0.52560  0.44403  1.0000
  O   O35       1.0  0.88679  0.02560  0.05597  1.0000
  O   O36       1.0  0.11321  0.02560  0.44403  1.0000
  O   O37       1.0  0.61321  0.47440  0.94403  1.0000
  O   O38       1.0  0.38679  0.47440  0.55597  1.0000
  O   O39       1.0  0.11321  0.97440  0.94403  1.0000
  O   O40       1.0  0.88679  0.97440  0.55597  1.0000
  C   C9        1.0  0.63894  0.17700  0.33653  1.0000
  C   C10       1.0  0.36106  0.17700  0.16347  1.0000
  C   C11       1.0  0.13894  0.67700  0.33653  1.0000
  C   C12       1.0  0.86106  0.67700  0.16347  1.0000
  C   C13       1.0  0.36106  0.82300  0.66347  1.0000
  C   C14       1.0  0.63894  0.82300  0.83653  1.0000
  C   C15       1.0  0.86106  0.32300  0.66347  1.0000
  C   C16       1.0  0.13894  0.32300  0.83653  1.0000
  C   C17       1.0  0.62108  0.28820  0.26797  1.0000
  C   C18       1.0  0.37892  0.28820  0.23203  1.0000
  C   C19       1.0  0.12108  0.78820  0.26797  1.0000
  C   C20       1.0  0.87892  0.78820  0.23203  1.0000
  C   C21       1.0  0.37892  0.71180  0.73203  1.0000
  C   C22       1.0  0.62108  0.71180  0.76797  1.0000
  C   C23       1.0  0.87892  0.21180  0.73203  1.0000
  C   C24       1.0  0.12108  0.21180  0.76797  1.0000
  C   C25       1.0  0.52283  0.45800  0.16402  1.0000
  C   C26       1.0  0.47717  0.45800  0.33598  1.0000
  C   C27       1.0  0.02283  0.95800  0.16402  1.0000
  C   C28       1.0  0.97717  0.95800  0.33598  1.0000
  C   C29       1.0  0.47717  0.54200  0.83598  1.0000
  C   C30       1.0  0.52283  0.54200  0.66402  1.0000
  C   C31       1.0  0.97717  0.04200  0.83598  1.0000
  C   C32       1.0  0.02283  0.04200  0.66402  1.0000
  C   C33       1.0  0.43560  0.55470  0.12380  1.0000
  C   C34       1.0  0.56440  0.55470  0.37620  1.0000
  C   C35       1.0  0.93560  0.05470  0.12380  1.0000
  C   C36       1.0  0.06440  0.05470  0.37620  1.0000
  C   C37       1.0  0.56440  0.44530  0.87620  1.0000
  C   C38       1.0  0.43560  0.44530  0.62380  1.0000
  C   C39       1.0  0.06440  0.94530  0.87620  1.0000
  C   C40       1.0  0.93560  0.94530  0.62380  1.0000
  C   C41       1.0  0.59200  0.46660  0.13243  1.0000
  C   C42       1.0  0.40800  0.46660  0.36757  1.0000
  C   C43       1.0  0.09200  0.96660  0.13243  1.0000
  C   C44       1.0  0.90800  0.96660  0.36757  1.0000
  C   C45       1.0  0.40800  0.53340  0.86757  1.0000
  C   C46       1.0  0.59200  0.53340  0.63243  1.0000
  C   C47       1.0  0.90800  0.03340  0.86757  1.0000
  C   C48       1.0  0.09200  0.03340  0.63243  1.0000
  H   H1        1.0  0.58070  0.52210  0.08430  1.0000
  H   H2        1.0  0.41930  0.52210  0.41570  1.0000
  H   H3        1.0  0.08070  0.02210  0.08430  1.0000
  H   H4        1.0  0.91930  0.02210  0.41570  1.0000
  H   H5        1.0  0.41930  0.47790  0.91570  1.0000
  H   H6        1.0  0.58070  0.47790  0.58430  1.0000
  H   H7        1.0  0.91930  0.97790  0.91570  1.0000
  H   H8        1.0  0.08070  0.97790  0.58430  1.0000
  C   C49       1.0  0.69180  0.30610  0.23899  1.0000
  C   C50       1.0  0.30820  0.30610  0.26101  1.0000
  C   C51       1.0  0.19180  0.80610  0.23899  1.0000
  C   C52       1.0  0.80820  0.80610  0.26101  1.0000
  C   C53       1.0  0.30820  0.69390  0.76101  1.0000
  C   C54       1.0  0.69180  0.69390  0.73899  1.0000
  C   C55       1.0  0.80820  0.19390  0.76101  1.0000
  C   C56       1.0  0.19180  0.19390  0.73899  1.0000
  H   H9        1.0  0.75030  0.25780  0.26580  1.0000
  H   H10       1.0  0.24970  0.25780  0.23420  1.0000
  H   H11       1.0  0.25030  0.75780  0.26580  1.0000
  H   H12       1.0  0.74970  0.75780  0.23420  1.0000
  H   H13       1.0  0.24970  0.74220  0.73420  1.0000
  H   H14       1.0  0.75030  0.74220  0.76580  1.0000
  H   H15       1.0  0.74970  0.24220  0.73420  1.0000
  H   H16       1.0  0.25030  0.24220  0.76580  1.0000
  C   C57       1.0  0.67700  0.39480  0.17080  1.0000
  C   C58       1.0  0.32300  0.39480  0.32920  1.0000
  C   C59       1.0  0.17700  0.89480  0.17080  1.0000
  C   C60       1.0  0.82300  0.89480  0.32920  1.0000
  C   C61       1.0  0.32300  0.60520  0.82920  1.0000
  C   C62       1.0  0.67700  0.60520  0.67080  1.0000
  C   C63       1.0  0.82300  0.10520  0.82920  1.0000
  C   C64       1.0  0.17700  0.10520  0.67080  1.0000
  H   H17       1.0  0.72500  0.40610  0.15060  1.0000
  H   H18       1.0  0.27500  0.40610  0.34940  1.0000
  H   H19       1.0  0.22500  0.90610  0.15060  1.0000
  H   H20       1.0  0.77500  0.90610  0.34940  1.0000
  H   H21       1.0  0.27500  0.59390  0.84940  1.0000
  H   H22       1.0  0.72500  0.59390  0.65060  1.0000
  H   H23       1.0  0.77500  0.09390  0.84940  1.0000
  H   H24       1.0  0.22500  0.09390  0.65060  1.0000
