data_image0
_chemical_formula_structural       Zn4O24C36H12
_chemical_formula_sum              "Zn4 O24 C36 H12"
_cell_length_a       9.455
_cell_length_b       16.0074
_cell_length_c       11.0347
_cell_angle_alpha    90
_cell_angle_beta     98.466
_cell_angle_gamma    90

_space_group_name_H-M_alt    "P 1"
_space_group_IT_number       1

loop_
  _space_group_symop_operation_xyz
  'x, y, z'

loop_
  _atom_site_type_symbol
  _atom_site_label
  _atom_site_symmetry_multiplicity
  _atom_site_fract_x
  _atom_site_fract_y
  _atom_site_fract_z
  _atom_site_occupancy
  Zn  Zn1       1.0  0.13113  0.07995  0.93129  1.0000
  Zn  Zn2       1.0  0.36887  0.57995  0.56871  1.0000
  Zn  Zn3       1.0  0.86887  0.92005  0.06871  1.0000
  Zn  Zn4       1.0  0.63113  0.42005  0.43129  1.0000
  O   O1        1.0  0.20300  0.99502  0.05540  1.0000
  O   O2        1.0  0.29700  0.49502  0.44460  1.0000
  O   O3        1.0  0.79700  0.00498  0.94460  1.0000
  O   O4        1.0  0.70300  0.50498  0.55540  1.0000
  O   O5        1.0  0.04570  0.95254  0.17470  1.0000
  O   O6        1.0  0.45430  0.45254  0.32530  1.0000
  O   O7        1.0  0.95430  0.04746  0.82530  1.0000
  O   O8        1.0  0.54570  0.54746  0.67470  1.0000
  O   O9        1.0  0.70560  0.93212  0.15480  1.0000
  O   O10       1.0  0.79440  0.43212  0.34520  1.0000
  O   O11       1.0  0.29440  0.06788  0.84520  1.0000
  O   O12       1.0  0.20560  0.56788  0.65480  1.0000
  O   O13       1.0  0.78230  0.83025  0.28530  1.0000
  O   O14       1.0  0.71770  0.33025  0.21470  1.0000
  O   O15       1.0  0.21770  0.16975  0.71470  1.0000
  O   O16       1.0  0.28230  0.66975  0.78530  1.0000
  O   O17       1.0  0.42330  0.67843  0.48630  1.0000
  O   O18       1.0  0.07670  0.17843  0.01370  1.0000
  O   O19       1.0  0.57670  0.32157  0.51370  1.0000
  O   O20       1.0  0.92330  0.82157  0.98630  1.0000
  O   O21       1.0  0.21320  0.73750  0.49780  1.0000
  O   O22       1.0  0.28680  0.23750  0.00220  1.0000
  O   O23       1.0  0.78680  0.26250  0.50220  1.0000
  O   O24       1.0  0.71320  0.76250  0.99780  1.0000
  C   C1        1.0  0.16960  0.95570  0.14460  1.0000
  C   C2        1.0  0.33040  0.45570  0.35540  1.0000
  C   C3        1.0  0.83040  0.04430  0.85540  1.0000
  C   C4        1.0  0.66960  0.54430  0.64460  1.0000
  C   C5        1.0  0.68670  0.87671  0.23370  1.0000
  C   C6        1.0  0.81330  0.37671  0.26630  1.0000
  C   C7        1.0  0.31330  0.12329  0.76630  1.0000
  C   C8        1.0  0.18670  0.62329  0.73370  1.0000
  C   C9        1.0  0.32820  0.73480  0.45890  1.0000
  C   C10       1.0  0.17180  0.23480  0.04110  1.0000
  C   C11       1.0  0.67180  0.26520  0.54110  1.0000
  C   C12       1.0  0.82820  0.76520  0.95890  1.0000
  C   C13       1.0  0.28610  0.90670  0.22020  1.0000
  C   C14       1.0  0.21390  0.40670  0.27980  1.0000
  C   C15       1.0  0.71390  0.09330  0.77980  1.0000
  C   C16       1.0  0.78610  0.59330  0.72020  1.0000
  C   C17       1.0  0.42690  0.91623  0.19820  1.0000
  C   C18       1.0  0.07310  0.41623  0.30180  1.0000
  C   C19       1.0  0.57310  0.08377  0.80180  1.0000
  C   C20       1.0  0.92690  0.58377  0.69820  1.0000
  C   C21       1.0  0.53610  0.86873  0.26140  1.0000
  C   C22       1.0  0.96390  0.36873  0.23860  1.0000
  C   C23       1.0  0.46390  0.13127  0.73860  1.0000
  C   C24       1.0  0.03610  0.63127  0.76140  1.0000
  C   C25       1.0  0.50370  0.81083  0.34750  1.0000
  C   C26       1.0  0.99630  0.31083  0.15250  1.0000
  C   C27       1.0  0.49630  0.18917  0.65250  1.0000
  C   C28       1.0  0.00370  0.68917  0.84750  1.0000
  C   C29       1.0  0.36400  0.80090  0.37070  1.0000
  C   C30       1.0  0.13600  0.30090  0.12930  1.0000
  C   C31       1.0  0.63600  0.19910  0.62930  1.0000
  C   C32       1.0  0.86400  0.69910  0.87070  1.0000
  C   C33       1.0  0.25480  0.84966  0.30720  1.0000
  C   C34       1.0  0.24520  0.34966  0.19280  1.0000
  C   C35       1.0  0.74520  0.15034  0.69280  1.0000
  C   C36       1.0  0.75480  0.65034  0.80720  1.0000
  H   H1        1.0  0.44600  0.95300  0.13900  1.0000
  H   H2        1.0  0.05400  0.45300  0.36100  1.0000
  H   H3        1.0  0.55400  0.04700  0.86100  1.0000
  H   H4        1.0  0.94600  0.54700  0.63900  1.0000
  H   H5        1.0  0.58500  0.77700  0.39600  1.0000
  H   H6        1.0  0.91500  0.27700  0.10400  1.0000
  H   H7        1.0  0.41500  0.22300  0.60400  1.0000
  H   H8        1.0  0.08500  0.72300  0.89600  1.0000
  H   H9        1.0  0.16200  0.84200  0.32300  1.0000
  H   H10       1.0  0.33800  0.34200  0.17700  1.0000
  H   H11       1.0  0.83800  0.15800  0.67700  1.0000
  H   H12       1.0  0.66200  0.65800  0.82300  1.0000
