data_image0
_chemical_formula_structural       Zn4O24C20H4C8H4C8H4
_chemical_formula_sum              "Zn4 O24 C36 H12"
_cell_length_a       9.5077
_cell_length_b       16.395
_cell_length_c       11.6119
_cell_angle_alpha    90
_cell_angle_beta     97.22
_cell_angle_gamma    90

_space_group_name_H-M_alt    "P 1"
_space_group_IT_number       1

loop_
  _space_group_symop_operation_xyz
  'x, y, z'

loop_
  _atom_site_type_symbol
  _atom_site_label
  _atom_site_symmetry_multiplicity
  _atom_site_fract_x
  _atom_site_fract_y
  _atom_site_fract_z
  _atom_site_occupancy
  Zn  Zn1       1.0  0.36389  0.42021  0.54690  1.0000
  Zn  Zn2       1.0  0.13611  0.92021  0.95310  1.0000
  Zn  Zn3       1.0  0.63611  0.57979  0.45310  1.0000
  Zn  Zn4       1.0  0.86389  0.07979  0.04690  1.0000
  O   O1        1.0  0.54200  0.43250  0.65250  1.0000
  O   O2        1.0  0.95800  0.93250  0.84750  1.0000
  O   O3        1.0  0.45800  0.56750  0.34750  1.0000
  O   O4        1.0  0.04200  0.06750  0.15250  1.0000
  O   O5        1.0  0.69870  0.48063  0.54010  1.0000
  O   O6        1.0  0.80130  0.98063  0.95990  1.0000
  O   O7        1.0  0.30130  0.51937  0.45990  1.0000
  O   O8        1.0  0.19870  0.01937  0.04010  1.0000
  O   O9        1.0  0.91910  0.16711  0.94920  1.0000
  O   O10       1.0  0.58090  0.66711  0.55080  1.0000
  O   O11       1.0  0.08090  0.83289  0.05080  1.0000
  O   O12       1.0  0.41910  0.33289  0.44920  1.0000
  O   O13       1.0  0.69100  0.19330  0.90710  1.0000
  O   O14       1.0  0.80900  0.69330  0.59290  1.0000
  O   O15       1.0  0.30900  0.80670  0.09290  1.0000
  O   O16       1.0  0.19100  0.30670  0.40710  1.0000
  O   O17       1.0  0.20390  0.41816  0.63530  1.0000
  O   O18       1.0  0.29610  0.91816  0.86470  1.0000
  O   O19       1.0  0.79610  0.58184  0.36470  1.0000
  O   O20       1.0  0.70390  0.08184  0.13530  1.0000
  O   O21       1.0  0.26250  0.29700  0.71320  1.0000
  O   O22       1.0  0.23750  0.79700  0.78680  1.0000
  O   O23       1.0  0.73750  0.70300  0.28680  1.0000
  O   O24       1.0  0.76250  0.20300  0.21320  1.0000
  C   C1        1.0  0.66460  0.43750  0.62110  1.0000
  C   C2        1.0  0.83540  0.93750  0.87890  1.0000
  C   C3        1.0  0.33540  0.56250  0.37890  1.0000
  C   C4        1.0  0.16460  0.06250  0.12110  1.0000
  C   C5        1.0  0.81670  0.20750  0.89780  1.0000
  C   C6        1.0  0.68330  0.70750  0.60220  1.0000
  C   C7        1.0  0.18330  0.79250  0.10220  1.0000
  C   C8        1.0  0.31670  0.29250  0.39780  1.0000
  C   C9        1.0  0.17600  0.35250  0.68680  1.0000
  C   C10       1.0  0.32400  0.85250  0.81320  1.0000
  C   C11       1.0  0.82400  0.64750  0.31320  1.0000
  C   C12       1.0  0.67600  0.14750  0.18680  1.0000
  C   C13       1.0  0.77990  0.38560  0.68500  1.0000
  C   C14       1.0  0.72010  0.88560  0.81500  1.0000
  C   C15       1.0  0.22010  0.61440  0.31500  1.0000
  C   C16       1.0  0.27990  0.11440  0.18500  1.0000
  C   C17       1.0  0.74800  0.32620  0.76340  1.0000
  C   C18       1.0  0.75200  0.82620  0.73660  1.0000
  C   C19       1.0  0.25200  0.67380  0.23660  1.0000
  C   C20       1.0  0.24800  0.17380  0.26340  1.0000
  H   H1        1.0  0.65520  0.32040  0.77980  1.0000
  H   H2        1.0  0.84480  0.82040  0.72020  1.0000
  H   H3        1.0  0.34480  0.67960  0.22020  1.0000
  H   H4        1.0  0.15520  0.17960  0.27980  1.0000
  C   C21       1.0  0.85380  0.27530  0.81760  1.0000
  C   C22       1.0  0.64620  0.77530  0.68240  1.0000
  C   C23       1.0  0.14620  0.72470  0.18240  1.0000
  C   C24       1.0  0.35380  0.22470  0.31760  1.0000
  C   C25       1.0  0.99190  0.28570  0.79430  1.0000
  C   C26       1.0  0.50810  0.78570  0.70570  1.0000
  C   C27       1.0  0.00810  0.71430  0.20570  1.0000
  C   C28       1.0  0.49190  0.21430  0.29430  1.0000
  H   H5        1.0  0.06270  0.25230  0.83130  1.0000
  H   H6        1.0  0.43730  0.75230  0.66870  1.0000
  H   H7        1.0  0.93730  0.74770  0.16870  1.0000
  H   H8        1.0  0.56270  0.24770  0.33130  1.0000
  C   C29       1.0  0.02720  0.34450  0.71730  1.0000
  C   C30       1.0  0.47280  0.84450  0.78270  1.0000
  C   C31       1.0  0.97280  0.65550  0.28270  1.0000
  C   C32       1.0  0.52720  0.15550  0.21730  1.0000
  C   C33       1.0  0.91980  0.39490  0.66250  1.0000
  C   C34       1.0  0.58020  0.89490  0.83750  1.0000
  C   C35       1.0  0.08020  0.60510  0.33750  1.0000
  C   C36       1.0  0.41980  0.10510  0.16250  1.0000
  H   H9        1.0  0.94200  0.43490  0.61080  1.0000
  H   H10       1.0  0.55800  0.93490  0.88920  1.0000
  H   H11       1.0  0.05800  0.56510  0.38920  1.0000
  H   H12       1.0  0.44200  0.06510  0.11080  1.0000
