data_image0
_chemical_formula_structural       Zn4O24C20H4C8H4C8H4
_chemical_formula_sum              "Zn4 O24 C36 H12"
_cell_length_a       9.4801
_cell_length_b       16.3027
_cell_length_c       11.551
_cell_angle_alpha    90
_cell_angle_beta     97.138
_cell_angle_gamma    90

_space_group_name_H-M_alt    "P 1"
_space_group_IT_number       1

loop_
  _space_group_symop_operation_xyz
  'x, y, z'

loop_
  _atom_site_type_symbol
  _atom_site_label
  _atom_site_symmetry_multiplicity
  _atom_site_fract_x
  _atom_site_fract_y
  _atom_site_fract_z
  _atom_site_occupancy
  Zn  Zn1       1.0  0.63627  0.07972  0.45291  1.0000
  Zn  Zn2       1.0  0.86373  0.57972  0.04709  1.0000
  Zn  Zn3       1.0  0.36373  0.92028  0.54709  1.0000
  Zn  Zn4       1.0  0.13627  0.42028  0.95291  1.0000
  O   O1        1.0  0.79645  0.08134  0.36372  1.0000
  O   O2        1.0  0.70355  0.58134  0.13628  1.0000
  O   O3        1.0  0.20355  0.91866  0.63628  1.0000
  O   O4        1.0  0.29645  0.41866  0.86372  1.0000
  O   O5        1.0  0.73721  0.20285  0.28722  1.0000
  O   O6        1.0  0.76279  0.70285  0.21278  1.0000
  O   O7        1.0  0.26279  0.79715  0.71278  1.0000
  O   O8        1.0  0.23721  0.29715  0.78722  1.0000
  O   O9        1.0  0.08080  0.33260  0.05056  1.0000
  O   O10       1.0  0.41920  0.83260  0.44944  1.0000
  O   O11       1.0  0.91920  0.66740  0.94944  1.0000
  O   O12       1.0  0.58080  0.16740  0.55056  1.0000
  O   O13       1.0  0.30930  0.30703  0.09360  1.0000
  O   O14       1.0  0.19070  0.80703  0.40640  1.0000
  O   O15       1.0  0.69070  0.69297  0.90640  1.0000
  O   O16       1.0  0.80930  0.19297  0.59360  1.0000
  O   O17       1.0  0.45800  0.06736  0.34683  1.0000
  O   O18       1.0  0.04200  0.56736  0.15317  1.0000
  O   O19       1.0  0.54200  0.93264  0.65317  1.0000
  O   O20       1.0  0.95800  0.43264  0.84683  1.0000
  O   O21       1.0  0.30166  0.01976  0.45998  1.0000
  O   O22       1.0  0.19834  0.51976  0.04002  1.0000
  O   O23       1.0  0.69834  0.98024  0.54002  1.0000
  O   O24       1.0  0.80166  0.48024  0.95998  1.0000
  C   C1        1.0  0.82410  0.14730  0.31300  1.0000
  C   C2        1.0  0.67590  0.64730  0.18700  1.0000
  C   C3        1.0  0.17590  0.85270  0.68700  1.0000
  C   C4        1.0  0.32410  0.35270  0.81300  1.0000
  C   C5        1.0  0.18440  0.29223  0.10230  1.0000
  C   C6        1.0  0.31560  0.79223  0.39770  1.0000
  C   C7        1.0  0.81560  0.70777  0.89770  1.0000
  C   C8        1.0  0.68440  0.20777  0.60230  1.0000
  C   C9        1.0  0.33610  0.06276  0.37840  1.0000
  C   C10       1.0  0.16390  0.56276  0.12160  1.0000
  C   C11       1.0  0.66390  0.93724  0.62160  1.0000
  C   C12       1.0  0.83610  0.43724  0.87840  1.0000
  C   C13       1.0  0.97350  0.15501  0.28290  1.0000
  C   C14       1.0  0.52650  0.65501  0.21710  1.0000
  C   C15       1.0  0.02650  0.84499  0.71710  1.0000
  C   C16       1.0  0.47350  0.34499  0.78290  1.0000
  C   C17       1.0  0.00770  0.21466  0.20520  1.0000
  C   C18       1.0  0.49230  0.71466  0.29480  1.0000
  C   C19       1.0  0.99230  0.78534  0.79480  1.0000
  C   C20       1.0  0.50770  0.28534  0.70520  1.0000
  H   H1        1.0  0.93650  0.24820  0.16830  1.0000
  H   H2        1.0  0.56350  0.74820  0.33170  1.0000
  H   H3        1.0  0.06350  0.75180  0.83170  1.0000
  H   H4        1.0  0.43650  0.25180  0.66830  1.0000
  C   C21       1.0  0.14640  0.22488  0.18210  1.0000
  C   C22       1.0  0.35360  0.72488  0.31790  1.0000
  C   C23       1.0  0.85360  0.77512  0.81790  1.0000
  C   C24       1.0  0.64640  0.27512  0.68210  1.0000
  C   C25       1.0  0.25270  0.17438  0.23680  1.0000
  C   C26       1.0  0.24730  0.67438  0.26320  1.0000
  C   C27       1.0  0.74730  0.82562  0.76320  1.0000
  C   C28       1.0  0.75270  0.32562  0.73680  1.0000
  H   H5        1.0  0.34600  0.18060  0.22100  1.0000
  H   H6        1.0  0.15400  0.68060  0.27900  1.0000
  H   H7        1.0  0.65400  0.81940  0.77900  1.0000
  H   H8        1.0  0.84600  0.31940  0.72100  1.0000
  C   C29       1.0  0.22000  0.11456  0.31510  1.0000
  C   C30       1.0  0.28000  0.61456  0.18490  1.0000
  C   C31       1.0  0.78000  0.88544  0.68490  1.0000
  C   C32       1.0  0.72000  0.38544  0.81510  1.0000
  C   C33       1.0  0.08070  0.10507  0.33760  1.0000
  C   C34       1.0  0.41930  0.60507  0.16240  1.0000
  C   C35       1.0  0.91930  0.89493  0.66240  1.0000
  C   C36       1.0  0.58070  0.39493  0.83760  1.0000
  H   H9        1.0  0.05870  0.06500  0.38970  1.0000
  H   H10       1.0  0.44130  0.56500  0.11030  1.0000
  H   H11       1.0  0.94130  0.93500  0.61030  1.0000
  H   H12       1.0  0.55870  0.43500  0.88970  1.0000
