data_image0
_chemical_formula_structural       Cd12C12H12C12H12N12C12H12N12C48H12C12O24C24H12C12H12C12H12C12H12N12O24C48H12C12H12C12H12C12H12Na4
_chemical_formula_sum              "Cd12 C240 H144 N36 O48 Na4"
_cell_length_a       18.615
_cell_length_b       18.615
_cell_length_c       24.852
_cell_angle_alpha    90
_cell_angle_beta     90
_cell_angle_gamma    120

_space_group_name_H-M_alt    "P 1"
_space_group_IT_number       1

loop_
  _space_group_symop_operation_xyz
  'x, y, z'

loop_
  _atom_site_type_symbol
  _atom_site_label
  _atom_site_symmetry_multiplicity
  _atom_site_fract_x
  _atom_site_fract_y
  _atom_site_fract_z
  _atom_site_occupancy
  Cd  Cd1       1.0  0.45199  0.25915  0.56295  1.0000
  Cd  Cd2       1.0  0.74085  0.19284  0.56295  1.0000
  Cd  Cd3       1.0  0.80716  0.54801  0.56295  1.0000
  Cd  Cd4       1.0  0.54801  0.74085  0.06295  1.0000
  Cd  Cd5       1.0  0.25915  0.80716  0.06295  1.0000
  Cd  Cd6       1.0  0.19284  0.45199  0.06295  1.0000
  Cd  Cd7       1.0  0.25915  0.45199  0.43705  1.0000
  Cd  Cd8       1.0  0.19284  0.74085  0.43705  1.0000
  Cd  Cd9       1.0  0.54801  0.80716  0.43705  1.0000
  Cd  Cd10      1.0  0.74085  0.54801  0.93705  1.0000
  Cd  Cd11      1.0  0.80716  0.25915  0.93705  1.0000
  Cd  Cd12      1.0  0.45199  0.19284  0.93705  1.0000
  C   C1        1.0  0.17290  0.16610  0.64640  1.0000
  C   C2        1.0  0.83390  0.00680  0.64640  1.0000
  C   C3        1.0  0.99320  0.82710  0.64640  1.0000
  C   C4        1.0  0.82710  0.83390  0.14640  1.0000
  C   C5        1.0  0.16610  0.99320  0.14640  1.0000
  C   C6        1.0  0.00680  0.17290  0.14640  1.0000
  C   C7        1.0  0.16610  0.17290  0.35360  1.0000
  C   C8        1.0  0.00680  0.83390  0.35360  1.0000
  C   C9        1.0  0.82710  0.99320  0.35360  1.0000
  C   C10       1.0  0.83390  0.82710  0.85360  1.0000
  C   C11       1.0  0.99320  0.16610  0.85360  1.0000
  C   C12       1.0  0.17290  0.00680  0.85360  1.0000
  H   H1        1.0  0.16400  0.15260  0.61000  1.0000
  H   H2        1.0  0.84740  0.01140  0.61000  1.0000
  H   H3        1.0  0.98860  0.83600  0.61000  1.0000
  H   H4        1.0  0.83600  0.84740  0.11000  1.0000
  H   H5        1.0  0.15260  0.98860  0.11000  1.0000
  H   H6        1.0  0.01140  0.16400  0.11000  1.0000
  H   H7        1.0  0.15260  0.16400  0.39000  1.0000
  H   H8        1.0  0.01140  0.84740  0.39000  1.0000
  H   H9        1.0  0.83600  0.98860  0.39000  1.0000
  H   H10       1.0  0.84740  0.83600  0.89000  1.0000
  H   H11       1.0  0.98860  0.15260  0.89000  1.0000
  H   H12       1.0  0.16400  0.01140  0.89000  1.0000
  C   C13       1.0  0.19570  0.19820  0.75200  1.0000
  C   C14       1.0  0.80180  0.99750  0.75200  1.0000
  C   C15       1.0  0.00250  0.80430  0.75200  1.0000
  C   C16       1.0  0.80430  0.80180  0.25200  1.0000
  C   C17       1.0  0.19820  0.00250  0.25200  1.0000
  C   C18       1.0  0.99750  0.19570  0.25200  1.0000
  C   C19       1.0  0.19820  0.19570  0.24800  1.0000
  C   C20       1.0  0.99750  0.80180  0.24800  1.0000
  C   C21       1.0  0.80430  0.00250  0.24800  1.0000
  C   C22       1.0  0.80180  0.80430  0.74800  1.0000
  C   C23       1.0  0.00250  0.19820  0.74800  1.0000
  C   C24       1.0  0.19570  0.99750  0.74800  1.0000
  H   H13       1.0  0.20540  0.20950  0.78850  1.0000
  H   H14       1.0  0.79050  0.99590  0.78850  1.0000
  H   H15       1.0  0.00410  0.79460  0.78850  1.0000
  H   H16       1.0  0.79460  0.79050  0.28850  1.0000
  H   H17       1.0  0.20950  0.00410  0.28850  1.0000
  H   H18       1.0  0.99590  0.20540  0.28850  1.0000
  H   H19       1.0  0.20950  0.20540  0.21150  1.0000
  H   H20       1.0  0.99590  0.79050  0.21150  1.0000
  H   H21       1.0  0.79460  0.00410  0.21150  1.0000
  H   H22       1.0  0.79050  0.79460  0.71150  1.0000
  H   H23       1.0  0.00410  0.20950  0.71150  1.0000
  H   H24       1.0  0.20540  0.99590  0.71150  1.0000
  N   N1        1.0  0.50930  0.18330  0.58930  1.0000
  N   N2        1.0  0.81670  0.32600  0.58930  1.0000
  N   N3        1.0  0.67400  0.49070  0.58930  1.0000
  N   N4        1.0  0.49070  0.81670  0.08930  1.0000
  N   N5        1.0  0.18330  0.67400  0.08930  1.0000
  N   N6        1.0  0.32600  0.50930  0.08930  1.0000
  N   N7        1.0  0.18330  0.50930  0.41070  1.0000
  N   N8        1.0  0.32600  0.81670  0.41070  1.0000
  N   N9        1.0  0.49070  0.67400  0.41070  1.0000
  N   N10       1.0  0.81670  0.49070  0.91070  1.0000
  N   N11       1.0  0.67400  0.18330  0.91070  1.0000
  N   N12       1.0  0.50930  0.32600  0.91070  1.0000
  C   C25       1.0  0.41400  0.06240  0.64990  1.0000
  C   C26       1.0  0.93760  0.35160  0.64990  1.0000
  C   C27       1.0  0.64840  0.58600  0.64990  1.0000
  C   C28       1.0  0.58600  0.93760  0.14990  1.0000
  C   C29       1.0  0.06240  0.64840  0.14990  1.0000
  C   C30       1.0  0.35160  0.41400  0.14990  1.0000
  C   C31       1.0  0.06240  0.41400  0.35010  1.0000
  C   C32       1.0  0.35160  0.93760  0.35010  1.0000
  C   C33       1.0  0.58600  0.64840  0.35010  1.0000
  C   C34       1.0  0.93760  0.58600  0.85010  1.0000
  C   C35       1.0  0.64840  0.06240  0.85010  1.0000
  C   C36       1.0  0.41400  0.35160  0.85010  1.0000
  H   H25       1.0  0.37060  0.07340  0.65220  1.0000
  H   H26       1.0  0.92660  0.29720  0.65220  1.0000
  H   H27       1.0  0.70280  0.62940  0.65220  1.0000
  H   H28       1.0  0.62940  0.92660  0.15220  1.0000
  H   H29       1.0  0.07340  0.70280  0.15220  1.0000
  H   H30       1.0  0.29720  0.37060  0.15220  1.0000
  H   H31       1.0  0.07340  0.37060  0.34780  1.0000
  H   H32       1.0  0.29720  0.92660  0.34780  1.0000
  H   H33       1.0  0.62940  0.70280  0.34780  1.0000
  H   H34       1.0  0.92660  0.62940  0.84780  1.0000
  H   H35       1.0  0.70280  0.07340  0.84780  1.0000
  H   H36       1.0  0.37060  0.29720  0.84780  1.0000
  N   N13       1.0  0.58500  0.20750  0.57150  1.0000
  N   N14       1.0  0.79250  0.37750  0.57150  1.0000
  N   N15       1.0  0.62250  0.41500  0.57150  1.0000
  N   N16       1.0  0.41500  0.79250  0.07150  1.0000
  N   N17       1.0  0.20750  0.62250  0.07150  1.0000
  N   N18       1.0  0.37750  0.58500  0.07150  1.0000
  N   N19       1.0  0.20750  0.58500  0.42850  1.0000
  N   N20       1.0  0.37750  0.79250  0.42850  1.0000
  N   N21       1.0  0.41500  0.62250  0.42850  1.0000
  N   N22       1.0  0.79250  0.41500  0.92850  1.0000
  N   N23       1.0  0.62250  0.20750  0.92850  1.0000
  N   N24       1.0  0.58500  0.37750  0.92850  1.0000
  C   C37       1.0  0.11810  0.17080  0.73230  1.0000
  C   C38       1.0  0.82920  0.94730  0.73230  1.0000
  C   C39       1.0  0.05270  0.88190  0.73230  1.0000
  C   C40       1.0  0.88190  0.82920  0.23230  1.0000
  C   C41       1.0  0.17080  0.05270  0.23230  1.0000
  C   C42       1.0  0.94730  0.11810  0.23230  1.0000
  C   C43       1.0  0.17080  0.11810  0.26770  1.0000
  C   C44       1.0  0.94730  0.82920  0.26770  1.0000
  C   C45       1.0  0.88190  0.05270  0.26770  1.0000
  C   C46       1.0  0.82920  0.88190  0.76770  1.0000
  C   C47       1.0  0.05270  0.17080  0.76770  1.0000
  C   C48       1.0  0.11810  0.94730  0.76770  1.0000
  C   C49       1.0  0.48550  0.11310  0.62220  1.0000
  C   C50       1.0  0.88690  0.37240  0.62220  1.0000
  C   C51       1.0  0.62760  0.51450  0.62220  1.0000
  C   C52       1.0  0.51450  0.88690  0.12220  1.0000
  C   C53       1.0  0.11310  0.62760  0.12220  1.0000
  C   C54       1.0  0.37240  0.48550  0.12220  1.0000
  C   C55       1.0  0.11310  0.48550  0.37780  1.0000
  C   C56       1.0  0.37240  0.88690  0.37780  1.0000
  C   C57       1.0  0.51450  0.62760  0.37780  1.0000
  C   C58       1.0  0.88690  0.51450  0.87780  1.0000
  C   C59       1.0  0.62760  0.11310  0.87780  1.0000
  C   C60       1.0  0.48550  0.37240  0.87780  1.0000
  C   C61       1.0  0.24820  0.19730  0.66560  1.0000
  C   C62       1.0  0.80270  0.05090  0.66560  1.0000
  C   C63       1.0  0.94910  0.75180  0.66560  1.0000
  C   C64       1.0  0.75180  0.80270  0.16560  1.0000
  C   C65       1.0  0.19730  0.94910  0.16560  1.0000
  C   C66       1.0  0.05090  0.24820  0.16560  1.0000
  C   C67       1.0  0.19730  0.24820  0.33440  1.0000
  C   C68       1.0  0.05090  0.80270  0.33440  1.0000
  C   C69       1.0  0.75180  0.94910  0.33440  1.0000
  C   C70       1.0  0.80270  0.75180  0.83440  1.0000
  C   C71       1.0  0.94910  0.19730  0.83440  1.0000
  C   C72       1.0  0.24820  0.05090  0.83440  1.0000
  C   C73       1.0  0.26090  0.21000  0.71880  1.0000
  C   C74       1.0  0.79000  0.05090  0.71880  1.0000
  C   C75       1.0  0.94910  0.73910  0.71880  1.0000
  C   C76       1.0  0.73910  0.79000  0.21880  1.0000
  C   C77       1.0  0.21000  0.94910  0.21880  1.0000
  C   C78       1.0  0.05090  0.26090  0.21880  1.0000
  C   C79       1.0  0.21000  0.26090  0.28120  1.0000
  C   C80       1.0  0.05090  0.79000  0.28120  1.0000
  C   C81       1.0  0.73910  0.94910  0.28120  1.0000
  C   C82       1.0  0.79000  0.73910  0.78120  1.0000
  C   C83       1.0  0.94910  0.21000  0.78120  1.0000
  C   C84       1.0  0.26090  0.05090  0.78120  1.0000
  H   H37       1.0  0.31290  0.22650  0.73340  1.0000
  H   H38       1.0  0.77350  0.08640  0.73340  1.0000
  H   H39       1.0  0.91360  0.68710  0.73340  1.0000
  H   H40       1.0  0.68710  0.77350  0.23340  1.0000
  H   H41       1.0  0.22650  0.91360  0.23340  1.0000
  H   H42       1.0  0.08640  0.31290  0.23340  1.0000
  H   H43       1.0  0.22650  0.31290  0.26660  1.0000
  H   H44       1.0  0.08640  0.77350  0.26660  1.0000
  H   H45       1.0  0.68710  0.91360  0.26660  1.0000
  H   H46       1.0  0.77350  0.68710  0.76660  1.0000
  H   H47       1.0  0.91360  0.22650  0.76660  1.0000
  H   H48       1.0  0.31290  0.08640  0.76660  1.0000
  C   C85       1.0  0.31940  0.21960  0.62940  1.0000
  C   C86       1.0  0.78040  0.09980  0.62940  1.0000
  C   C87       1.0  0.90020  0.68060  0.62940  1.0000
  C   C88       1.0  0.68060  0.78040  0.12940  1.0000
  C   C89       1.0  0.21960  0.90020  0.12940  1.0000
  C   C90       1.0  0.09980  0.31940  0.12940  1.0000
  C   C91       1.0  0.21960  0.31940  0.37060  1.0000
  C   C92       1.0  0.09980  0.78040  0.37060  1.0000
  C   C93       1.0  0.68060  0.90020  0.37060  1.0000
  C   C94       1.0  0.78040  0.68060  0.87060  1.0000
  C   C95       1.0  0.90020  0.21960  0.87060  1.0000
  C   C96       1.0  0.31940  0.09980  0.87060  1.0000
  O   O1        1.0  0.38530  0.22590  0.64860  1.0000
  O   O2        1.0  0.77410  0.15940  0.64860  1.0000
  O   O3        1.0  0.84060  0.61470  0.64860  1.0000
  O   O4        1.0  0.61470  0.77410  0.14860  1.0000
  O   O5        1.0  0.22590  0.84060  0.14860  1.0000
  O   O6        1.0  0.15940  0.38530  0.14860  1.0000
  O   O7        1.0  0.22590  0.38530  0.35140  1.0000
  O   O8        1.0  0.15940  0.77410  0.35140  1.0000
  O   O9        1.0  0.61470  0.84060  0.35140  1.0000
  O   O10       1.0  0.77410  0.61470  0.85140  1.0000
  O   O11       1.0  0.84060  0.22590  0.85140  1.0000
  O   O12       1.0  0.38530  0.15940  0.85140  1.0000
  O   O13       1.0  0.31810  0.23790  0.58280  1.0000
  O   O14       1.0  0.76210  0.08020  0.58280  1.0000
  O   O15       1.0  0.91980  0.68190  0.58280  1.0000
  O   O16       1.0  0.68190  0.76210  0.08280  1.0000
  O   O17       1.0  0.23790  0.91980  0.08280  1.0000
  O   O18       1.0  0.08020  0.31810  0.08280  1.0000
  O   O19       1.0  0.23790  0.31810  0.41720  1.0000
  O   O20       1.0  0.08020  0.76210  0.41720  1.0000
  O   O21       1.0  0.68190  0.91980  0.41720  1.0000
  O   O22       1.0  0.76210  0.68190  0.91720  1.0000
  O   O23       1.0  0.91980  0.23790  0.91720  1.0000
  O   O24       1.0  0.31810  0.08020  0.91720  1.0000
  C   C97       1.0  0.55240  0.09860  0.62030  1.0000
  C   C98       1.0  0.90140  0.45380  0.62030  1.0000
  C   C99       1.0  0.54620  0.44760  0.62030  1.0000
  C   C100      1.0  0.44760  0.90140  0.12030  1.0000
  C   C101      1.0  0.09860  0.54620  0.12030  1.0000
  C   C102      1.0  0.45380  0.55240  0.12030  1.0000
  C   C103      1.0  0.09860  0.55240  0.37970  1.0000
  C   C104      1.0  0.45380  0.90140  0.37970  1.0000
  C   C105      1.0  0.44760  0.54620  0.37970  1.0000
  C   C106      1.0  0.90140  0.44760  0.87970  1.0000
  C   C107      1.0  0.54620  0.09860  0.87970  1.0000
  C   C108      1.0  0.55240  0.45380  0.87970  1.0000
  C   C109      1.0  0.54710  0.02810  0.64560  1.0000
  C   C110      1.0  0.97190  0.51900  0.64560  1.0000
  C   C111      1.0  0.48100  0.45290  0.64560  1.0000
  C   C112      1.0  0.45290  0.97190  0.14560  1.0000
  C   C113      1.0  0.02810  0.48100  0.14560  1.0000
  C   C114      1.0  0.51900  0.54710  0.14560  1.0000
  C   C115      1.0  0.02810  0.54710  0.35440  1.0000
  C   C116      1.0  0.51900  0.97190  0.35440  1.0000
  C   C117      1.0  0.45290  0.48100  0.35440  1.0000
  C   C118      1.0  0.97190  0.45290  0.85440  1.0000
  C   C119      1.0  0.48100  0.02810  0.85440  1.0000
  C   C120      1.0  0.54710  0.51900  0.85440  1.0000
  H   H49       1.0  0.58980  0.01600  0.64310  1.0000
  H   H50       1.0  0.98400  0.57380  0.64310  1.0000
  H   H51       1.0  0.42620  0.41020  0.64310  1.0000
  H   H52       1.0  0.41020  0.98400  0.14310  1.0000
  H   H53       1.0  0.01600  0.42620  0.14310  1.0000
  H   H54       1.0  0.57380  0.58980  0.14310  1.0000
  H   H55       1.0  0.01600  0.58980  0.35690  1.0000
  H   H56       1.0  0.57380  0.98400  0.35690  1.0000
  H   H57       1.0  0.41020  0.42620  0.35690  1.0000
  H   H58       1.0  0.98400  0.41020  0.85690  1.0000
  H   H59       1.0  0.42620  0.01600  0.85690  1.0000
  H   H60       1.0  0.58980  0.57380  0.85690  1.0000
  C   C121      1.0  0.10630  0.15250  0.67800  1.0000
  C   C122      1.0  0.84750  0.95380  0.67800  1.0000
  C   C123      1.0  0.04620  0.89370  0.67800  1.0000
  C   C124      1.0  0.89370  0.84750  0.17800  1.0000
  C   C125      1.0  0.15250  0.04620  0.17800  1.0000
  C   C126      1.0  0.95380  0.10630  0.17800  1.0000
  C   C127      1.0  0.15250  0.10630  0.32200  1.0000
  C   C128      1.0  0.95380  0.84750  0.32200  1.0000
  C   C129      1.0  0.89370  0.04620  0.32200  1.0000
  C   C130      1.0  0.84750  0.89370  0.82200  1.0000
  C   C131      1.0  0.04620  0.15250  0.82200  1.0000
  C   C132      1.0  0.10630  0.95380  0.82200  1.0000
  H   H61       1.0  0.05390  0.13130  0.66290  1.0000
  H   H62       1.0  0.86870  0.92260  0.66290  1.0000
  H   H63       1.0  0.07740  0.94610  0.66290  1.0000
  H   H64       1.0  0.94610  0.86870  0.16290  1.0000
  H   H65       1.0  0.13130  0.07740  0.16290  1.0000
  H   H66       1.0  0.92260  0.05390  0.16290  1.0000
  H   H67       1.0  0.13130  0.05390  0.33710  1.0000
  H   H68       1.0  0.92260  0.86870  0.33710  1.0000
  H   H69       1.0  0.94610  0.07740  0.33710  1.0000
  H   H70       1.0  0.86870  0.94610  0.83710  1.0000
  H   H71       1.0  0.07740  0.13130  0.83710  1.0000
  H   H72       1.0  0.05390  0.92260  0.83710  1.0000
  C   C133      1.0  0.41020  0.99530  0.67390  1.0000
  C   C134      1.0  0.00470  0.41490  0.67390  1.0000
  C   C135      1.0  0.58510  0.58980  0.67390  1.0000
  C   C136      1.0  0.58980  0.00470  0.17390  1.0000
  C   C137      1.0  0.99530  0.58510  0.17390  1.0000
  C   C138      1.0  0.41490  0.41020  0.17390  1.0000
  C   C139      1.0  0.99530  0.41020  0.32610  1.0000
  C   C140      1.0  0.41490  0.00470  0.32610  1.0000
  C   C141      1.0  0.58980  0.58510  0.32610  1.0000
  C   C142      1.0  0.00470  0.58980  0.82610  1.0000
  C   C143      1.0  0.58510  0.99530  0.82610  1.0000
  C   C144      1.0  0.41020  0.41490  0.82610  1.0000
  H   H73       1.0  0.36160  0.95790  0.69160  1.0000
  H   H74       1.0  0.04210  0.40370  0.69160  1.0000
  H   H75       1.0  0.59630  0.63840  0.69160  1.0000
  H   H76       1.0  0.63840  0.04210  0.19160  1.0000
  H   H77       1.0  0.95790  0.59630  0.19160  1.0000
  H   H78       1.0  0.40370  0.36160  0.19160  1.0000
  H   H79       1.0  0.95790  0.36160  0.30840  1.0000
  H   H80       1.0  0.40370  0.04210  0.30840  1.0000
  H   H81       1.0  0.63840  0.59630  0.30840  1.0000
  H   H82       1.0  0.04210  0.63840  0.80840  1.0000
  H   H83       1.0  0.59630  0.95790  0.80840  1.0000
  H   H84       1.0  0.36160  0.40370  0.80840  1.0000
  C   C145      1.0  0.47810  0.97960  0.67320  1.0000
  C   C146      1.0  0.02040  0.49850  0.67320  1.0000
  C   C147      1.0  0.50150  0.52190  0.67320  1.0000
  C   C148      1.0  0.52190  0.02040  0.17320  1.0000
  C   C149      1.0  0.97960  0.50150  0.17320  1.0000
  C   C150      1.0  0.49850  0.47810  0.17320  1.0000
  C   C151      1.0  0.97960  0.47810  0.32680  1.0000
  C   C152      1.0  0.49850  0.02040  0.32680  1.0000
  C   C153      1.0  0.52190  0.50150  0.32680  1.0000
  C   C154      1.0  0.02040  0.52190  0.82680  1.0000
  C   C155      1.0  0.50150  0.97960  0.82680  1.0000
  C   C156      1.0  0.47810  0.49850  0.82680  1.0000
  H   H85       1.0  0.47390  0.93480  0.69240  1.0000
  H   H86       1.0  0.06520  0.53910  0.69240  1.0000
  H   H87       1.0  0.46090  0.52610  0.69240  1.0000
  H   H88       1.0  0.52610  0.06520  0.19240  1.0000
  H   H89       1.0  0.93480  0.46090  0.19240  1.0000
  H   H90       1.0  0.53910  0.47390  0.19240  1.0000
  H   H91       1.0  0.93480  0.47390  0.30760  1.0000
  H   H92       1.0  0.53910  0.06520  0.30760  1.0000
  H   H93       1.0  0.52610  0.46090  0.30760  1.0000
  H   H94       1.0  0.06520  0.52610  0.80760  1.0000
  H   H95       1.0  0.46090  0.93480  0.80760  1.0000
  H   H96       1.0  0.47390  0.53910  0.80760  1.0000
  N   N25       1.0  0.61290  0.15870  0.58920  1.0000
  N   N26       1.0  0.84130  0.45420  0.58920  1.0000
  N   N27       1.0  0.54580  0.38710  0.58920  1.0000
  N   N28       1.0  0.38710  0.84130  0.08920  1.0000
  N   N29       1.0  0.15870  0.54580  0.08920  1.0000
  N   N30       1.0  0.45420  0.61290  0.08920  1.0000
  N   N31       1.0  0.15870  0.61290  0.41080  1.0000
  N   N32       1.0  0.45420  0.84130  0.41080  1.0000
  N   N33       1.0  0.38710  0.54580  0.41080  1.0000
  N   N34       1.0  0.84130  0.38710  0.91080  1.0000
  N   N35       1.0  0.54580  0.15870  0.91080  1.0000
  N   N36       1.0  0.61290  0.45420  0.91080  1.0000
  O   O25       1.0  0.53340  0.28240  0.47730  1.0000
  O   O26       1.0  0.71760  0.25100  0.47730  1.0000
  O   O27       1.0  0.74900  0.46660  0.47730  1.0000
  O   O28       1.0  0.46660  0.71760  0.97730  1.0000
  O   O29       1.0  0.28240  0.74900  0.97730  1.0000
  O   O30       1.0  0.25100  0.53340  0.97730  1.0000
  O   O31       1.0  0.28240  0.53340  0.52270  1.0000
  O   O32       1.0  0.25100  0.71760  0.52270  1.0000
  O   O33       1.0  0.46660  0.74900  0.52270  1.0000
  O   O34       1.0  0.71760  0.46660  0.02270  1.0000
  O   O35       1.0  0.74900  0.28240  0.02270  1.0000
  O   O36       1.0  0.53340  0.25100  0.02270  1.0000
  O   O37       1.0  0.40070  0.23320  0.47680  1.0000
  O   O38       1.0  0.76680  0.16750  0.47680  1.0000
  O   O39       1.0  0.83250  0.59930  0.47680  1.0000
  O   O40       1.0  0.59930  0.76680  0.97680  1.0000
  O   O41       1.0  0.23320  0.83250  0.97680  1.0000
  O   O42       1.0  0.16750  0.40070  0.97680  1.0000
  O   O43       1.0  0.23320  0.40070  0.52320  1.0000
  O   O44       1.0  0.16750  0.76680  0.52320  1.0000
  O   O45       1.0  0.59930  0.83250  0.52320  1.0000
  O   O46       1.0  0.76680  0.59930  0.02320  1.0000
  O   O47       1.0  0.83250  0.23320  0.02320  1.0000
  O   O48       1.0  0.40070  0.16750  0.02320  1.0000
  C   C157      1.0  0.46610  0.24650  0.39300  1.0000
  C   C158      1.0  0.75350  0.21960  0.39300  1.0000
  C   C159      1.0  0.78040  0.53390  0.39300  1.0000
  C   C160      1.0  0.53390  0.75350  0.89300  1.0000
  C   C161      1.0  0.24650  0.78040  0.89300  1.0000
  C   C162      1.0  0.21960  0.46610  0.89300  1.0000
  C   C163      1.0  0.24650  0.46610  0.60700  1.0000
  C   C164      1.0  0.21960  0.75350  0.60700  1.0000
  C   C165      1.0  0.53390  0.78040  0.60700  1.0000
  C   C166      1.0  0.75350  0.53390  0.10700  1.0000
  C   C167      1.0  0.78040  0.24650  0.10700  1.0000
  C   C168      1.0  0.46610  0.21960  0.10700  1.0000
  C   C169      1.0  0.46570  0.25350  0.45370  1.0000
  C   C170      1.0  0.74650  0.21220  0.45370  1.0000
  C   C171      1.0  0.78780  0.53430  0.45370  1.0000
  C   C172      1.0  0.53430  0.74650  0.95370  1.0000
  C   C173      1.0  0.25350  0.78780  0.95370  1.0000
  C   C174      1.0  0.21220  0.46570  0.95370  1.0000
  C   C175      1.0  0.25350  0.46570  0.54630  1.0000
  C   C176      1.0  0.21220  0.74650  0.54630  1.0000
  C   C177      1.0  0.53430  0.78780  0.54630  1.0000
  C   C178      1.0  0.74650  0.53430  0.04630  1.0000
  C   C179      1.0  0.78780  0.25350  0.04630  1.0000
  C   C180      1.0  0.46570  0.21220  0.04630  1.0000
  C   C181      1.0  0.46470  0.23510  0.27970  1.0000
  C   C182      1.0  0.76490  0.22960  0.27970  1.0000
  C   C183      1.0  0.77040  0.53530  0.27970  1.0000
  C   C184      1.0  0.53530  0.76490  0.77970  1.0000
  C   C185      1.0  0.23510  0.77040  0.77970  1.0000
  C   C186      1.0  0.22960  0.46470  0.77970  1.0000
  C   C187      1.0  0.23510  0.46470  0.72030  1.0000
  C   C188      1.0  0.22960  0.76490  0.72030  1.0000
  C   C189      1.0  0.53530  0.77040  0.72030  1.0000
  C   C190      1.0  0.76490  0.53530  0.22030  1.0000
  C   C191      1.0  0.77040  0.23510  0.22030  1.0000
  C   C192      1.0  0.46470  0.22960  0.22030  1.0000
  C   C193      1.0  0.53120  0.24600  0.31040  1.0000
  C   C194      1.0  0.75400  0.28520  0.31040  1.0000
  C   C195      1.0  0.71480  0.46880  0.31040  1.0000
  C   C196      1.0  0.46880  0.75400  0.81040  1.0000
  C   C197      1.0  0.24600  0.71480  0.81040  1.0000
  C   C198      1.0  0.28520  0.53120  0.81040  1.0000
  C   C199      1.0  0.24600  0.53120  0.68960  1.0000
  C   C200      1.0  0.28520  0.75400  0.68960  1.0000
  C   C201      1.0  0.46880  0.71480  0.68960  1.0000
  C   C202      1.0  0.75400  0.46880  0.18960  1.0000
  C   C203      1.0  0.71480  0.24600  0.18960  1.0000
  C   C204      1.0  0.53120  0.28520  0.18960  1.0000
  H   H97       1.0  0.57700  0.24920  0.29310  1.0000
  H   H98       1.0  0.75080  0.32780  0.29310  1.0000
  H   H99       1.0  0.67220  0.42300  0.29310  1.0000
  H   H100      1.0  0.42300  0.75080  0.79310  1.0000
  H   H101      1.0  0.24920  0.67220  0.79310  1.0000
  H   H102      1.0  0.32780  0.57700  0.79310  1.0000
  H   H103      1.0  0.24920  0.57700  0.70690  1.0000
  H   H104      1.0  0.32780  0.75080  0.70690  1.0000
  H   H105      1.0  0.42300  0.67220  0.70690  1.0000
  H   H106      1.0  0.75080  0.42300  0.20690  1.0000
  H   H107      1.0  0.67220  0.24920  0.20690  1.0000
  H   H108      1.0  0.57700  0.32780  0.20690  1.0000
  C   C205      1.0  0.39640  0.22840  0.30800  1.0000
  C   C206      1.0  0.77160  0.16800  0.30800  1.0000
  C   C207      1.0  0.83200  0.60360  0.30800  1.0000
  C   C208      1.0  0.60360  0.77160  0.80800  1.0000
  C   C209      1.0  0.22840  0.83200  0.80800  1.0000
  C   C210      1.0  0.16800  0.39640  0.80800  1.0000
  C   C211      1.0  0.22840  0.39640  0.69200  1.0000
  C   C212      1.0  0.16800  0.77160  0.69200  1.0000
  C   C213      1.0  0.60360  0.83200  0.69200  1.0000
  C   C214      1.0  0.77160  0.60360  0.19200  1.0000
  C   C215      1.0  0.83200  0.22840  0.19200  1.0000
  C   C216      1.0  0.39640  0.16800  0.19200  1.0000
  H   H109      1.0  0.34940  0.21860  0.28890  1.0000
  H   H110      1.0  0.78140  0.13080  0.28890  1.0000
  H   H111      1.0  0.86920  0.65060  0.28890  1.0000
  H   H112      1.0  0.65060  0.78140  0.78890  1.0000
  H   H113      1.0  0.21860  0.86920  0.78890  1.0000
  H   H114      1.0  0.13080  0.34940  0.78890  1.0000
  H   H115      1.0  0.21860  0.34940  0.71110  1.0000
  H   H116      1.0  0.13080  0.78140  0.71110  1.0000
  H   H117      1.0  0.65060  0.86920  0.71110  1.0000
  H   H118      1.0  0.78140  0.65060  0.21110  1.0000
  H   H119      1.0  0.86920  0.21860  0.21110  1.0000
  H   H120      1.0  0.34940  0.13080  0.21110  1.0000
  C   C217      1.0  0.53250  0.25190  0.36420  1.0000
  C   C218      1.0  0.74810  0.28060  0.36420  1.0000
  C   C219      1.0  0.71940  0.46750  0.36420  1.0000
  C   C220      1.0  0.46750  0.74810  0.86420  1.0000
  C   C221      1.0  0.25190  0.71940  0.86420  1.0000
  C   C222      1.0  0.28060  0.53250  0.86420  1.0000
  C   C223      1.0  0.25190  0.53250  0.63580  1.0000
  C   C224      1.0  0.28060  0.74810  0.63580  1.0000
  C   C225      1.0  0.46750  0.71940  0.63580  1.0000
  C   C226      1.0  0.74810  0.46750  0.13580  1.0000
  C   C227      1.0  0.71940  0.25190  0.13580  1.0000
  C   C228      1.0  0.53250  0.28060  0.13580  1.0000
  H   H121      1.0  0.57920  0.25990  0.38290  1.0000
  H   H122      1.0  0.74010  0.31930  0.38290  1.0000
  H   H123      1.0  0.68070  0.42080  0.38290  1.0000
  H   H124      1.0  0.42080  0.74010  0.88290  1.0000
  H   H125      1.0  0.25990  0.68070  0.88290  1.0000
  H   H126      1.0  0.31930  0.57920  0.88290  1.0000
  H   H127      1.0  0.25990  0.57920  0.61710  1.0000
  H   H128      1.0  0.31930  0.74010  0.61710  1.0000
  H   H129      1.0  0.42080  0.68070  0.61710  1.0000
  H   H130      1.0  0.74010  0.42080  0.11710  1.0000
  H   H131      1.0  0.68070  0.25990  0.11710  1.0000
  H   H132      1.0  0.57920  0.31930  0.11710  1.0000
  C   C229      1.0  0.39660  0.23570  0.36290  1.0000
  C   C230      1.0  0.76430  0.16090  0.36290  1.0000
  C   C231      1.0  0.83910  0.60340  0.36290  1.0000
  C   C232      1.0  0.60340  0.76430  0.86290  1.0000
  C   C233      1.0  0.23570  0.83910  0.86290  1.0000
  C   C234      1.0  0.16090  0.39660  0.86290  1.0000
  C   C235      1.0  0.23570  0.39660  0.63710  1.0000
  C   C236      1.0  0.16090  0.76430  0.63710  1.0000
  C   C237      1.0  0.60340  0.83910  0.63710  1.0000
  C   C238      1.0  0.76430  0.60340  0.13710  1.0000
  C   C239      1.0  0.83910  0.23570  0.13710  1.0000
  C   C240      1.0  0.39660  0.16090  0.13710  1.0000
  H   H133      1.0  0.35140  0.23360  0.38030  1.0000
  H   H134      1.0  0.76640  0.11780  0.38030  1.0000
  H   H135      1.0  0.88220  0.64860  0.38030  1.0000
  H   H136      1.0  0.64860  0.76640  0.88030  1.0000
  H   H137      1.0  0.23360  0.88220  0.88030  1.0000
  H   H138      1.0  0.11780  0.35140  0.88030  1.0000
  H   H139      1.0  0.23360  0.35140  0.61970  1.0000
  H   H140      1.0  0.11780  0.76640  0.61970  1.0000
  H   H141      1.0  0.64860  0.88220  0.61970  1.0000
  H   H142      1.0  0.76640  0.64860  0.11970  1.0000
  H   H143      1.0  0.88220  0.23360  0.11970  1.0000
  H   H144      1.0  0.35140  0.11780  0.11970  1.0000
  Na  Na1       1.0  0.66670  0.33330  0.51493  1.0000
  Na  Na2       1.0  0.33330  0.66670  0.01493  1.0000
  Na  Na3       1.0  0.33330  0.66670  0.48507  1.0000
  Na  Na4       1.0  0.66670  0.33330  0.98507  1.0000
