data_image0
_chemical_formula_structural       C4H2C2H2C2H2C2H2C4H2C2H2C2H4C2H2C4H2C2H2C2H2C2H2C4H6C12Cr2Mn2N16O4
_chemical_formula_sum              "C46 H32 Cr2 Mn2 N16 O4"
_cell_length_a       10.4784
_cell_length_b       17.878
_cell_length_c       18.967
_cell_angle_alpha    71.198
_cell_angle_beta     87.749
_cell_angle_gamma    76.002

_space_group_name_H-M_alt    "P 1"
_space_group_IT_number       1

loop_
  _space_group_symop_operation_xyz
  'x, y, z'

loop_
  _atom_site_type_symbol
  _atom_site_label
  _atom_site_symmetry_multiplicity
  _atom_site_fract_x
  _atom_site_fract_y
  _atom_site_fract_z
  _atom_site_occupancy
  C   C1        1.0  0.45740  0.36208  0.30037  1.0000
  C   C2        1.0  0.54260  0.63792  0.69963  1.0000
  C   C3        1.0  0.59200  0.34140  0.31661  1.0000
  C   C4        1.0  0.40800  0.65860  0.68339  1.0000
  H   H1        1.0  0.63880  0.38160  0.30310  1.0000
  H   H2        1.0  0.36120  0.61840  0.69690  1.0000
  C   C5        1.0  0.65670  0.26130  0.35280  1.0000
  C   C6        1.0  0.34330  0.73870  0.64720  1.0000
  H   H3        1.0  0.74670  0.24770  0.36380  1.0000
  H   H4        1.0  0.25330  0.75230  0.63620  1.0000
  C   C7        1.0  0.58590  0.20110  0.37276  1.0000
  C   C8        1.0  0.41410  0.79890  0.62724  1.0000
  H   H5        1.0  0.62870  0.14720  0.39710  1.0000
  H   H6        1.0  0.37130  0.85280  0.60290  1.0000
  C   C9        1.0  0.45060  0.22240  0.35600  1.0000
  C   C10       1.0  0.54940  0.77760  0.64400  1.0000
  H   H7        1.0  0.40340  0.18240  0.36900  1.0000
  H   H8        1.0  0.59660  0.81760  0.63100  1.0000
  C   C11       1.0  0.38600  0.30297  0.31987  1.0000
  C   C12       1.0  0.61400  0.69703  0.68013  1.0000
  C   C13       1.0  0.24570  0.31560  0.30850  1.0000
  C   C14       1.0  0.75430  0.68440  0.69150  1.0000
  H   H9        1.0  0.20920  0.27070  0.32220  1.0000
  H   H10       1.0  0.79080  0.72930  0.67780  1.0000
  C   C15       1.0  0.03150  0.39852  0.26136  1.0000
  C   C16       1.0  0.96850  0.60148  0.73864  1.0000
  H   H11       1.0  0.02620  0.40430  0.20830  1.0000
  H   H12       1.0  0.97380  0.59570  0.79170  1.0000
  C   C17       1.0  0.95270  0.47710  0.26868  1.0000
  C   C18       1.0  0.04730  0.52290  0.73132  1.0000
  H   H13       1.0  0.86940  0.49390  0.24070  1.0000
  H   H14       1.0  0.13060  0.50610  0.75930  1.0000
  H   H15       1.0  0.93480  0.47070  0.32060  1.0000
  H   H16       1.0  0.06520  0.52930  0.67940  1.0000
  C   C19       1.0  0.96980  0.61737  0.21184  1.0000
  C   C20       1.0  0.03020  0.38263  0.78816  1.0000
  H   H17       1.0  0.87830  0.63150  0.20850  1.0000
  H   H18       1.0  0.12170  0.36850  0.79150  1.0000
  C   C21       1.0  0.03730  0.68142  0.18717  1.0000
  C   C22       1.0  0.96270  0.31858  0.81283  1.0000
  C   C23       1.0  0.95360  0.76128  0.15737  1.0000
  C   C24       1.0  0.04640  0.23872  0.84263  1.0000
  H   H19       1.0  0.86270  0.76900  0.15460  1.0000
  H   H20       1.0  0.13730  0.23100  0.84540  1.0000
  C   C25       1.0  0.01080  0.82690  0.13261  1.0000
  C   C26       1.0  0.98920  0.17310  0.86739  1.0000
  H   H21       1.0  0.95710  0.87930  0.11390  1.0000
  H   H22       1.0  0.04290  0.12070  0.88610  1.0000
  C   C27       1.0  0.14560  0.81640  0.13516  1.0000
  C   C28       1.0  0.85440  0.18360  0.86484  1.0000
  H   H23       1.0  0.18150  0.86140  0.11750  1.0000
  H   H24       1.0  0.81850  0.13860  0.88250  1.0000
  C   C29       1.0  0.22910  0.73798  0.16427  1.0000
  C   C30       1.0  0.77090  0.26202  0.83573  1.0000
  H   H25       1.0  0.31990  0.73110  0.16650  1.0000
  H   H26       1.0  0.68010  0.26890  0.83350  1.0000
  C   C31       1.0  0.17380  0.66950  0.19024  1.0000
  C   C32       1.0  0.82620  0.33050  0.80976  1.0000
  C   C33       1.0  0.96520  0.33121  0.30154  1.0000
  C   C34       1.0  0.03480  0.66879  0.69846  1.0000
  H   H27       1.0  0.00310  0.28380  0.28760  1.0000
  H   H28       1.0  0.99690  0.71620  0.71240  1.0000
  H   H29       1.0  0.87280  0.34880  0.28820  1.0000
  H   H30       1.0  0.12720  0.65120  0.71180  1.0000
  H   H31       1.0  0.97760  0.31830  0.35440  1.0000
  H   H32       1.0  0.02240  0.68170  0.64560  1.0000
  C   C35       1.0  0.14030  0.48976  0.42164  1.0000
  C   C36       1.0  0.85970  0.51024  0.57836  1.0000
  C   C37       1.0  0.86680  0.57140  0.41445  1.0000
  C   C38       1.0  0.13320  0.42860  0.58555  1.0000
  C   C39       1.0  0.95280  0.39568  0.49123  1.0000
  C   C40       1.0  0.04720  0.60432  0.50877  1.0000
  C   C41       1.0  0.13590  0.49573  0.07913  1.0000
  C   C42       1.0  0.86410  0.50427  0.92087  1.0000
  C   C43       1.0  0.94540  0.40240  0.07496  1.0000
  C   C44       1.0  0.05460  0.59760  0.92504  1.0000
  C   C45       1.0  0.85710  0.57530  0.04130  1.0000
  C   C46       1.0  0.14290  0.42470  0.95870  1.0000
  Cr  Cr1       1.0  0.00000  0.50000  0.50000  1.0000
  Cr  Cr2       1.0  0.00000  0.50000  0.00000  1.0000
  Mn  Mn1       1.0  0.22274  0.49356  0.24863  1.0000
  Mn  Mn2       1.0  0.77726  0.50644  0.75137  1.0000
  N   N1        1.0  0.16840  0.38853  0.27948  1.0000
  N   N2        1.0  0.83160  0.61147  0.72052  1.0000
  N   N3        1.0  0.03030  0.53901  0.23914  1.0000
  N   N4        1.0  0.96970  0.46099  0.76086  1.0000
  N   N5        1.0  0.20900  0.48477  0.37291  1.0000
  N   N6        1.0  0.79100  0.51523  0.62709  1.0000
  N   N7        1.0  0.79340  0.61417  0.36532  1.0000
  N   N8        1.0  0.20660  0.38583  0.63468  1.0000
  N   N9        1.0  0.93210  0.33622  0.48746  1.0000
  N   N10       1.0  0.06790  0.66378  0.51254  1.0000
  N   N11       1.0  0.91270  0.34837  0.11889  1.0000
  N   N12       1.0  0.08730  0.65163  0.88111  1.0000
  N   N13       1.0  0.77920  0.61572  0.06350  1.0000
  N   N14       1.0  0.22080  0.38428  0.93650  1.0000
  N   N15       1.0  0.20340  0.49387  0.12505  1.0000
  N   N16       1.0  0.79660  0.50613  0.87495  1.0000
  O   O1        1.0  0.40251  0.44118  0.26118  1.0000
  O   O2        1.0  0.59749  0.55882  0.73882  1.0000
  O   O3        1.0  0.25780  0.59676  0.21833  1.0000
  O   O4        1.0  0.74220  0.40324  0.78167  1.0000
