data_image0
_chemical_formula_structural       U8O56C24H8
_chemical_formula_sum              "U8 O56 C24 H8"
_cell_length_a       10.4819
_cell_length_b       9.4001
_cell_length_c       19.969
_cell_angle_alpha    90
_cell_angle_beta     97.921
_cell_angle_gamma    90

_space_group_name_H-M_alt    "P 1"
_space_group_IT_number       1

loop_
  _space_group_symop_operation_xyz
  'x, y, z'

loop_
  _atom_site_type_symbol
  _atom_site_label
  _atom_site_symmetry_multiplicity
  _atom_site_fract_x
  _atom_site_fract_y
  _atom_site_fract_z
  _atom_site_occupancy
  U   U1        1.0  0.34555  0.77137  0.03053  1.0000
  U   U2        1.0  0.15445  0.27137  0.46947  1.0000
  U   U3        1.0  0.65445  0.22863  0.96947  1.0000
  U   U4        1.0  0.84555  0.72863  0.53053  1.0000
  U   U5        1.0  0.26360  0.75916  0.33538  1.0000
  U   U6        1.0  0.23640  0.25916  0.16462  1.0000
  U   U7        1.0  0.73640  0.24084  0.66462  1.0000
  U   U8        1.0  0.76360  0.74084  0.83538  1.0000
  O   O1        1.0  0.57190  0.74480  0.02110  1.0000
  O   O2        1.0  0.92810  0.24480  0.47890  1.0000
  O   O3        1.0  0.42810  0.25520  0.97890  1.0000
  O   O4        1.0  0.07190  0.75520  0.52110  1.0000
  O   O5        1.0  0.44600  0.74670  0.14620  1.0000
  O   O6        1.0  0.05400  0.24670  0.35380  1.0000
  O   O7        1.0  0.55400  0.25330  0.85380  1.0000
  O   O8        1.0  0.94600  0.75330  0.64620  1.0000
  O   O9        1.0  0.53690  0.73890  0.84530  1.0000
  O   O10       1.0  0.96310  0.23890  0.65470  1.0000
  O   O11       1.0  0.46310  0.26110  0.15470  1.0000
  O   O12       1.0  0.03690  0.76110  0.34530  1.0000
  O   O13       1.0  0.16340  0.76990  0.21980  1.0000
  O   O14       1.0  0.33660  0.26990  0.28020  1.0000
  O   O15       1.0  0.83660  0.23010  0.78020  1.0000
  O   O16       1.0  0.66340  0.73010  0.71980  1.0000
  O   O17       1.0  0.72070  0.73380  0.95130  1.0000
  O   O18       1.0  0.77930  0.23380  0.54870  1.0000
  O   O19       1.0  0.27930  0.26620  0.04870  1.0000
  O   O20       1.0  0.22070  0.76620  0.45130  1.0000
  O   O21       1.0  0.38950  0.77760  0.91460  1.0000
  O   O22       1.0  0.11050  0.27760  0.58540  1.0000
  O   O23       1.0  0.61050  0.22240  0.08540  1.0000
  O   O24       1.0  0.88950  0.72240  0.41460  1.0000
  O   O25       1.0  0.27450  0.94770  0.33580  1.0000
  O   O26       1.0  0.22550  0.44770  0.16420  1.0000
  O   O27       1.0  0.72550  0.05230  0.66420  1.0000
  O   O28       1.0  0.77450  0.55230  0.83580  1.0000
  O   O29       1.0  0.19110  0.77180  0.11070  1.0000
  O   O30       1.0  0.30890  0.27180  0.38930  1.0000
  O   O31       1.0  0.80890  0.22820  0.88930  1.0000
  O   O32       1.0  0.69110  0.72820  0.61070  1.0000
  O   O33       1.0  0.41600  0.74290  0.25470  1.0000
  O   O34       1.0  0.08400  0.24290  0.24530  1.0000
  O   O35       1.0  0.58400  0.25710  0.74530  1.0000
  O   O36       1.0  0.91600  0.75710  0.75470  1.0000
  O   O37       1.0  0.46780  0.74110  0.40030  1.0000
  O   O38       1.0  0.03220  0.24110  0.09970  1.0000
  O   O39       1.0  0.53220  0.25890  0.59970  1.0000
  O   O40       1.0  0.96780  0.75890  0.90030  1.0000
  O   O41       1.0  0.36840  0.95660  0.03860  1.0000
  O   O42       1.0  0.13160  0.45660  0.46140  1.0000
  O   O43       1.0  0.63160  0.04340  0.96140  1.0000
  O   O44       1.0  0.86840  0.54340  0.53860  1.0000
  O   O45       1.0  0.24990  0.57250  0.33340  1.0000
  O   O46       1.0  0.25010  0.07250  0.16660  1.0000
  O   O47       1.0  0.75010  0.42750  0.66660  1.0000
  O   O48       1.0  0.74990  0.92750  0.83340  1.0000
  O   O49       1.0  0.64640  0.69120  0.46510  1.0000
  O   O50       1.0  0.85360  0.19120  0.03490  1.0000
  O   O51       1.0  0.35360  0.30880  0.53490  1.0000
  O   O52       1.0  0.14640  0.80880  0.96510  1.0000
  O   O53       1.0  0.32810  0.58560  0.02340  1.0000
  O   O54       1.0  0.17190  0.08560  0.47660  1.0000
  O   O55       1.0  0.67190  0.41440  0.97660  1.0000
  O   O56       1.0  0.82810  0.91440  0.52340  1.0000
  C   C1        1.0  0.22990  0.76510  0.17200  1.0000
  C   C2        1.0  0.27010  0.26510  0.32800  1.0000
  C   C3        1.0  0.77010  0.23490  0.82800  1.0000
  C   C4        1.0  0.72990  0.73490  0.67200  1.0000
  C   C5        1.0  0.37510  0.75020  0.19170  1.0000
  C   C6        1.0  0.12490  0.25020  0.30830  1.0000
  C   C7        1.0  0.62490  0.24980  0.80830  1.0000
  C   C8        1.0  0.87510  0.74980  0.69170  1.0000
  C   C9        1.0  0.60880  0.74390  0.96420  1.0000
  C   C10       1.0  0.89120  0.24390  0.53580  1.0000
  C   C11       1.0  0.39120  0.25610  0.03580  1.0000
  C   C12       1.0  0.10880  0.75610  0.46420  1.0000
  C   C13       1.0  0.50410  0.75470  0.90310  1.0000
  C   C14       1.0  0.99590  0.25470  0.59690  1.0000
  C   C15       1.0  0.49590  0.24530  0.09690  1.0000
  C   C16       1.0  0.00410  0.74530  0.40310  1.0000
  C   C17       1.0  0.52810  0.66710  0.44600  1.0000
  C   C18       1.0  0.97190  0.16710  0.05400  1.0000
  C   C19       1.0  0.47190  0.33290  0.55400  1.0000
  C   C20       1.0  0.02810  0.83290  0.94600  1.0000
  C   C21       1.0  0.45910  0.54800  0.47710  1.0000
  C   C22       1.0  0.04090  0.04800  0.02290  1.0000
  C   C23       1.0  0.54090  0.45200  0.52290  1.0000
  C   C24       1.0  0.95910  0.95200  0.97710  1.0000
  H   H1        1.0  0.39530  0.58980  0.50210  1.0000
  H   H2        1.0  0.10470  0.08980  0.99790  1.0000
  H   H3        1.0  0.60470  0.41020  0.49790  1.0000
  H   H4        1.0  0.89530  0.91020  0.00210  1.0000
  H   H5        1.0  0.41320  0.49150  0.44090  1.0000
  H   H6        1.0  0.08680  0.99150  0.05910  1.0000
  H   H7        1.0  0.58680  0.50850  0.55910  1.0000
  H   H8        1.0  0.91320  0.00850  0.94090  1.0000
