data_image0
_chemical_formula_structural       Zn3O16C4H2C2H2C2H2C4H2C8H2C4H2C2H2C2H2C4
_chemical_formula_sum              "Zn3 O16 C32 H16"
_cell_length_a       9.52
_cell_length_b       10.16
_cell_length_c       11.49
_cell_angle_alpha    102.5
_cell_angle_beta     110.19
_cell_angle_gamma    94.42

_space_group_name_H-M_alt    "P 1"
_space_group_IT_number       1

loop_
  _space_group_symop_operation_xyz
  'x, y, z'

loop_
  _atom_site_type_symbol
  _atom_site_label
  _atom_site_symmetry_multiplicity
  _atom_site_fract_x
  _atom_site_fract_y
  _atom_site_fract_z
  _atom_site_occupancy
  Zn  Zn1       1.0  0.67792  0.26708  0.25371  1.0000
  Zn  Zn2       1.0  0.32208  0.73292  0.74629  1.0000
  Zn  Zn3       1.0  0.50000  0.00000  0.00000  1.0000
  O   O1        1.0  0.68120  0.49010  0.20290  1.0000
  O   O2        1.0  0.31880  0.50990  0.79710  1.0000
  O   O3        1.0  0.77000  0.44452  0.39038  1.0000
  O   O4        1.0  0.23000  0.55548  0.60962  1.0000
  O   O5        1.0  0.60830  0.95910  0.18051  1.0000
  O   O6        1.0  0.39170  0.04090  0.81949  1.0000
  O   O7        1.0  0.70360  0.13197  0.35853  1.0000
  O   O8        1.0  0.29640  0.86803  0.64147  1.0000
  O   O9        1.0  0.84080  0.23150  0.18576  1.0000
  O   O10       1.0  0.15920  0.76850  0.81424  1.0000
  O   O11       1.0  0.69120  0.09310  0.99450  1.0000
  O   O12       1.0  0.30880  0.90690  0.00550  1.0000
  O   O13       1.0  0.47440  0.19866  0.11231  1.0000
  O   O14       1.0  0.52560  0.80134  0.88769  1.0000
  O   O15       1.0  0.40970  0.30700  0.26969  1.0000
  O   O16       1.0  0.59030  0.69300  0.73031  1.0000
  C   C1        1.0  0.77760  0.67770  0.38660  1.0000
  C   C2        1.0  0.22240  0.32230  0.61340  1.0000
  C   C3        1.0  0.86910  0.72670  0.51590  1.0000
  C   C4        1.0  0.13090  0.27330  0.48410  1.0000
  H   H1        1.0  0.91300  0.66660  0.56290  1.0000
  H   H2        1.0  0.08700  0.33340  0.43710  1.0000
  C   C5        1.0  0.89430  0.86360  0.57370  1.0000
  C   C6        1.0  0.10570  0.13640  0.42630  1.0000
  H   H3        1.0  0.95620  0.89620  0.66000  1.0000
  H   H4        1.0  0.04380  0.10380  0.34000  1.0000
  C   C7        1.0  0.82910  0.95360  0.50580  1.0000
  C   C8        1.0  0.17090  0.04640  0.49420  1.0000
  H   H5        1.0  0.84490  0.04590  0.54720  1.0000
  H   H6        1.0  0.15510  0.95410  0.45280  1.0000
  C   C9        1.0  0.73990  0.90770  0.37600  1.0000
  C   C10       1.0  0.26010  0.09230  0.62400  1.0000
  C   C11       1.0  0.71620  0.77000  0.31790  1.0000
  C   C12       1.0  0.28380  0.23000  0.68210  1.0000
  H   H7        1.0  0.65770  0.73810  0.23070  1.0000
  H   H8        1.0  0.34230  0.26190  0.76930  1.0000
  C   C13       1.0  0.74070  0.52860  0.32110  1.0000
  C   C14       1.0  0.25930  0.47140  0.67890  1.0000
  C   C15       1.0  0.67690  0.00730  0.29800  1.0000
  C   C16       1.0  0.32310  0.99270  0.70200  1.0000
  C   C17       1.0  0.94440  0.16820  0.02680  1.0000
  C   C18       1.0  0.05560  0.83180  0.97320  1.0000
  C   C19       1.0  0.09370  0.20510  0.11220  1.0000
  C   C20       1.0  0.90630  0.79490  0.88780  1.0000
  H   H9        1.0  0.11480  0.22860  0.20010  1.0000
  H   H10       1.0  0.88520  0.77140  0.79990  1.0000
  C   C21       1.0  0.21210  0.20750  0.06810  1.0000
  C   C22       1.0  0.78790  0.79250  0.93190  1.0000
  C   C23       1.0  0.17920  0.18150  0.93640  1.0000
  C   C24       1.0  0.82080  0.81850  0.06360  1.0000
  H   H11       1.0  0.25760  0.18650  0.90590  1.0000
  H   H12       1.0  0.74240  0.81350  0.09410  1.0000
  C   C25       1.0  0.03010  0.14820  0.85100  1.0000
  C   C26       1.0  0.96990  0.85180  0.14900  1.0000
  H   H13       1.0  0.00860  0.13290  0.76340  1.0000
  H   H14       1.0  0.99140  0.86710  0.23660  1.0000
  C   C27       1.0  0.91330  0.13760  0.89530  1.0000
  C   C28       1.0  0.08670  0.86240  0.10470  1.0000
  H   H15       1.0  0.81360  0.10990  0.83720  1.0000
  H   H16       1.0  0.18640  0.89010  0.16280  1.0000
  C   C29       1.0  0.81570  0.16340  0.07280  1.0000
  C   C30       1.0  0.18430  0.83660  0.92720  1.0000
  C   C31       1.0  0.37420  0.23990  0.15860  1.0000
  C   C32       1.0  0.62580  0.76010  0.84140  1.0000
