data_image0
_chemical_formula_structural       Cd8O48C24H8C24H8C24H8
_chemical_formula_sum              "Cd8 O48 C72 H24"
_cell_length_a       15.1129
_cell_length_b       12.4966
_cell_length_c       16.848
_cell_angle_alpha    90
_cell_angle_beta     90
_cell_angle_gamma    90

_space_group_name_H-M_alt    "P 1"
_space_group_IT_number       1

loop_
  _space_group_symop_operation_xyz
  'x, y, z'

loop_
  _atom_site_type_symbol
  _atom_site_label
  _atom_site_symmetry_multiplicity
  _atom_site_fract_x
  _atom_site_fract_y
  _atom_site_fract_z
  _atom_site_occupancy
  Cd  Cd1       1.0  0.10359  0.01264  0.42593  1.0000
  Cd  Cd2       1.0  0.39641  0.98736  0.92593  1.0000
  Cd  Cd3       1.0  0.89641  0.51264  0.07407  1.0000
  Cd  Cd4       1.0  0.60359  0.48736  0.57407  1.0000
  Cd  Cd5       1.0  0.89641  0.98736  0.57407  1.0000
  Cd  Cd6       1.0  0.60359  0.01264  0.07407  1.0000
  Cd  Cd7       1.0  0.10359  0.48736  0.92593  1.0000
  Cd  Cd8       1.0  0.39641  0.51264  0.42593  1.0000
  O   O1        1.0  0.20860  0.86510  0.45120  1.0000
  O   O2        1.0  0.29140  0.13490  0.95120  1.0000
  O   O3        1.0  0.79140  0.36510  0.04880  1.0000
  O   O4        1.0  0.70860  0.63490  0.54880  1.0000
  O   O5        1.0  0.79140  0.13490  0.54880  1.0000
  O   O6        1.0  0.70860  0.86510  0.04880  1.0000
  O   O7        1.0  0.20860  0.63490  0.95120  1.0000
  O   O8        1.0  0.29140  0.36510  0.45120  1.0000
  O   O9        1.0  0.20300  0.00680  0.52570  1.0000
  O   O10       1.0  0.29700  0.99320  0.02570  1.0000
  O   O11       1.0  0.79700  0.50680  0.97430  1.0000
  O   O12       1.0  0.70300  0.49320  0.47430  1.0000
  O   O13       1.0  0.79700  0.99320  0.47430  1.0000
  O   O14       1.0  0.70300  0.00680  0.97430  1.0000
  O   O15       1.0  0.20300  0.49320  0.02570  1.0000
  O   O16       1.0  0.29700  0.50680  0.52570  1.0000
  O   O17       1.0  0.48070  0.62430  0.50560  1.0000
  O   O18       1.0  0.01930  0.37570  0.00560  1.0000
  O   O19       1.0  0.51930  0.12430  0.99440  1.0000
  O   O20       1.0  0.98070  0.87570  0.49440  1.0000
  O   O21       1.0  0.51930  0.37570  0.49440  1.0000
  O   O22       1.0  0.98070  0.62430  0.99440  1.0000
  O   O23       1.0  0.48070  0.87570  0.00560  1.0000
  O   O24       1.0  0.01930  0.12430  0.50560  1.0000
  O   O25       1.0  0.49800  0.58470  0.63300  1.0000
  O   O26       1.0  0.00200  0.41530  0.13300  1.0000
  O   O27       1.0  0.50200  0.08470  0.86700  1.0000
  O   O28       1.0  0.99800  0.91530  0.36700  1.0000
  O   O29       1.0  0.50200  0.41530  0.36700  1.0000
  O   O30       1.0  0.99800  0.58470  0.86700  1.0000
  O   O31       1.0  0.49800  0.91530  0.13300  1.0000
  O   O32       1.0  0.00200  0.08470  0.63300  1.0000
  O   O33       1.0  0.40470  0.84880  0.83440  1.0000
  O   O34       1.0  0.09530  0.15120  0.33440  1.0000
  O   O35       1.0  0.59530  0.34880  0.66560  1.0000
  O   O36       1.0  0.90470  0.65120  0.16560  1.0000
  O   O37       1.0  0.59530  0.15120  0.16560  1.0000
  O   O38       1.0  0.90470  0.84880  0.66560  1.0000
  O   O39       1.0  0.40470  0.65120  0.33440  1.0000
  O   O40       1.0  0.09530  0.34880  0.83440  1.0000
  O   O41       1.0  0.32550  0.98720  0.79790  1.0000
  O   O42       1.0  0.17450  0.01280  0.29790  1.0000
  O   O43       1.0  0.67450  0.48720  0.70210  1.0000
  O   O44       1.0  0.82550  0.51280  0.20210  1.0000
  O   O45       1.0  0.67450  0.01280  0.20210  1.0000
  O   O46       1.0  0.82550  0.98720  0.70210  1.0000
  O   O47       1.0  0.32550  0.51280  0.29790  1.0000
  O   O48       1.0  0.17450  0.48720  0.79790  1.0000
  C   C1        1.0  0.23200  0.91580  0.51020  1.0000
  C   C2        1.0  0.26800  0.08420  0.01020  1.0000
  C   C3        1.0  0.76800  0.41580  0.98980  1.0000
  C   C4        1.0  0.73200  0.58420  0.48980  1.0000
  C   C5        1.0  0.76800  0.08420  0.48980  1.0000
  C   C6        1.0  0.73200  0.91580  0.98980  1.0000
  C   C7        1.0  0.23200  0.58420  0.01020  1.0000
  C   C8        1.0  0.26800  0.41580  0.51020  1.0000
  C   C9        1.0  0.29760  0.86710  0.56660  1.0000
  C   C10       1.0  0.20240  0.13290  0.06660  1.0000
  C   C11       1.0  0.70240  0.36710  0.93340  1.0000
  C   C12       1.0  0.79760  0.63290  0.43340  1.0000
  C   C13       1.0  0.70240  0.13290  0.43340  1.0000
  C   C14       1.0  0.79760  0.86710  0.93340  1.0000
  C   C15       1.0  0.29760  0.63290  0.06660  1.0000
  C   C16       1.0  0.20240  0.36710  0.56660  1.0000
  C   C17       1.0  0.34790  0.77920  0.54590  1.0000
  C   C18       1.0  0.15210  0.22080  0.04590  1.0000
  C   C19       1.0  0.65210  0.27920  0.95410  1.0000
  C   C20       1.0  0.84790  0.72080  0.45410  1.0000
  C   C21       1.0  0.65210  0.22080  0.45410  1.0000
  C   C22       1.0  0.84790  0.77920  0.95410  1.0000
  C   C23       1.0  0.34790  0.72080  0.04590  1.0000
  C   C24       1.0  0.15210  0.27920  0.54590  1.0000
  H   H1        1.0  0.34430  0.75230  0.49450  1.0000
  H   H2        1.0  0.15570  0.24770  0.99450  1.0000
  H   H3        1.0  0.65570  0.25230  0.00550  1.0000
  H   H4        1.0  0.84430  0.74770  0.50550  1.0000
  H   H5        1.0  0.65570  0.24770  0.50550  1.0000
  H   H6        1.0  0.84430  0.75230  0.00550  1.0000
  H   H7        1.0  0.34430  0.74770  0.99450  1.0000
  H   H8        1.0  0.15570  0.25230  0.49450  1.0000
  C   C25       1.0  0.46430  0.63970  0.57750  1.0000
  C   C26       1.0  0.03570  0.36030  0.07750  1.0000
  C   C27       1.0  0.53570  0.13970  0.92250  1.0000
  C   C28       1.0  0.96430  0.86030  0.42250  1.0000
  C   C29       1.0  0.53570  0.36030  0.42250  1.0000
  C   C30       1.0  0.96430  0.63970  0.92250  1.0000
  C   C31       1.0  0.46430  0.86030  0.07750  1.0000
  C   C32       1.0  0.03570  0.13970  0.57750  1.0000
  C   C33       1.0  0.40450  0.72960  0.60090  1.0000
  C   C34       1.0  0.09550  0.27040  0.10090  1.0000
  C   C35       1.0  0.59550  0.22960  0.89910  1.0000
  C   C36       1.0  0.90450  0.77040  0.39910  1.0000
  C   C37       1.0  0.59550  0.27040  0.39910  1.0000
  C   C38       1.0  0.90450  0.72960  0.89910  1.0000
  C   C39       1.0  0.40450  0.77040  0.10090  1.0000
  C   C40       1.0  0.09550  0.22960  0.60090  1.0000
  C   C41       1.0  0.40750  0.76900  0.67830  1.0000
  C   C42       1.0  0.09250  0.23100  0.17830  1.0000
  C   C43       1.0  0.59250  0.26900  0.82170  1.0000
  C   C44       1.0  0.90750  0.73100  0.32170  1.0000
  C   C45       1.0  0.59250  0.23100  0.32170  1.0000
  C   C46       1.0  0.90750  0.76900  0.82170  1.0000
  C   C47       1.0  0.40750  0.73100  0.17830  1.0000
  C   C48       1.0  0.09250  0.26900  0.67830  1.0000
  H   H9        1.0  0.44360  0.73600  0.71570  1.0000
  H   H10       1.0  0.05640  0.26400  0.21570  1.0000
  H   H11       1.0  0.55640  0.23600  0.78430  1.0000
  H   H12       1.0  0.94360  0.76400  0.28430  1.0000
  H   H13       1.0  0.55640  0.26400  0.28430  1.0000
  H   H14       1.0  0.94360  0.73600  0.78430  1.0000
  H   H15       1.0  0.44360  0.76400  0.21570  1.0000
  H   H16       1.0  0.05640  0.23600  0.71570  1.0000
  C   C49       1.0  0.36180  0.90060  0.78380  1.0000
  C   C50       1.0  0.13820  0.09940  0.28380  1.0000
  C   C51       1.0  0.63820  0.40060  0.71620  1.0000
  C   C52       1.0  0.86180  0.59940  0.21620  1.0000
  C   C53       1.0  0.63820  0.09940  0.21620  1.0000
  C   C54       1.0  0.86180  0.90060  0.71620  1.0000
  C   C55       1.0  0.36180  0.59940  0.28380  1.0000
  C   C56       1.0  0.13820  0.40060  0.78380  1.0000
  C   C57       1.0  0.35710  0.85720  0.70000  1.0000
  C   C58       1.0  0.14290  0.14280  0.20000  1.0000
  C   C59       1.0  0.64290  0.35720  0.80000  1.0000
  C   C60       1.0  0.85710  0.64280  0.30000  1.0000
  C   C61       1.0  0.64290  0.14280  0.30000  1.0000
  C   C62       1.0  0.85710  0.85720  0.80000  1.0000
  C   C63       1.0  0.35710  0.64280  0.20000  1.0000
  C   C64       1.0  0.14290  0.35720  0.70000  1.0000
  C   C65       1.0  0.30390  0.90690  0.64390  1.0000
  C   C66       1.0  0.19610  0.09310  0.14390  1.0000
  C   C67       1.0  0.69610  0.40690  0.85610  1.0000
  C   C68       1.0  0.80390  0.59310  0.35610  1.0000
  C   C69       1.0  0.69610  0.09310  0.35610  1.0000
  C   C70       1.0  0.80390  0.90690  0.85610  1.0000
  C   C71       1.0  0.30390  0.59310  0.14390  1.0000
  C   C72       1.0  0.19610  0.40690  0.64390  1.0000
  H   H17       1.0  0.27200  0.96770  0.65790  1.0000
  H   H18       1.0  0.22800  0.03230  0.15790  1.0000
  H   H19       1.0  0.72800  0.46770  0.84210  1.0000
  H   H20       1.0  0.77200  0.53230  0.34210  1.0000
  H   H21       1.0  0.72800  0.03230  0.34210  1.0000
  H   H22       1.0  0.77200  0.96770  0.84210  1.0000
  H   H23       1.0  0.27200  0.53230  0.15790  1.0000
  H   H24       1.0  0.22800  0.46770  0.65790  1.0000
