data_image0
_chemical_formula_structural       Co8O56C12H4C8H4C8H4C12H4C4H4C4H4C4H4C20H4C8H4C8H4C12H4C4H4C4H4C4H4C8H4
_chemical_formula_sum              "Co8 O56 C120 H60"
_cell_length_a       19.936
_cell_length_b       10.251
_cell_length_c       17.91
_cell_angle_alpha    90
_cell_angle_beta     94.734
_cell_angle_gamma    90

_space_group_name_H-M_alt    "P 1"
_space_group_IT_number       1

loop_
  _space_group_symop_operation_xyz
  'x, y, z'

loop_
  _atom_site_type_symbol
  _atom_site_label
  _atom_site_symmetry_multiplicity
  _atom_site_fract_x
  _atom_site_fract_y
  _atom_site_fract_z
  _atom_site_occupancy
  Co  Co1       1.0  0.85554  0.25313  0.93508  1.0000
  Co  Co2       1.0  0.14446  0.75313  0.56492  1.0000
  Co  Co3       1.0  0.14446  0.74687  0.06492  1.0000
  Co  Co4       1.0  0.85554  0.24687  0.43508  1.0000
  Co  Co5       1.0  0.75209  0.45256  0.83525  1.0000
  Co  Co6       1.0  0.24791  0.95256  0.66475  1.0000
  Co  Co7       1.0  0.24791  0.54744  0.16475  1.0000
  Co  Co8       1.0  0.75209  0.04744  0.33525  1.0000
  O   O1        1.0  0.77057  0.25610  0.98789  1.0000
  O   O2        1.0  0.22943  0.75610  0.51211  1.0000
  O   O3        1.0  0.22943  0.74390  0.01211  1.0000
  O   O4        1.0  0.77057  0.24390  0.48789  1.0000
  O   O5        1.0  0.69552  0.36530  0.91091  1.0000
  O   O6        1.0  0.30448  0.86530  0.58909  1.0000
  O   O7        1.0  0.30448  0.63470  0.08909  1.0000
  O   O8        1.0  0.69552  0.13470  0.41091  1.0000
  O   O9        1.0  0.70467  0.11280  0.23735  1.0000
  O   O10       1.0  0.29533  0.61280  0.26265  1.0000
  O   O11       1.0  0.29533  0.88720  0.76265  1.0000
  O   O12       1.0  0.70467  0.38720  0.73735  1.0000
  O   O13       1.0  0.59436  0.11660  0.25543  1.0000
  O   O14       1.0  0.40564  0.61660  0.24457  1.0000
  O   O15       1.0  0.40564  0.88340  0.74457  1.0000
  O   O16       1.0  0.59436  0.38340  0.75543  1.0000
  O   O17       1.0  0.48205  0.35560  0.03765  1.0000
  O   O18       1.0  0.51795  0.85560  0.46235  1.0000
  O   O19       1.0  0.51795  0.64440  0.96235  1.0000
  O   O20       1.0  0.48205  0.14440  0.53765  1.0000
  O   O21       1.0  0.41492  0.45580  0.14499  1.0000
  O   O22       1.0  0.58508  0.95580  0.35501  1.0000
  O   O23       1.0  0.58508  0.54420  0.85501  1.0000
  O   O24       1.0  0.41492  0.04420  0.64499  1.0000
  O   O25       1.0  0.31088  0.38370  0.15873  1.0000
  O   O26       1.0  0.68912  0.88370  0.34127  1.0000
  O   O27       1.0  0.68912  0.61630  0.84127  1.0000
  O   O28       1.0  0.31088  0.11630  0.65873  1.0000
  O   O29       1.0  0.90395  0.12060  0.00233  1.0000
  O   O30       1.0  0.09605  0.62060  0.49767  1.0000
  O   O31       1.0  0.09605  0.87940  0.99767  1.0000
  O   O32       1.0  0.90395  0.37940  0.50233  1.0000
  O   O33       1.0  0.83788  0.03270  0.91195  1.0000
  O   O34       1.0  0.16212  0.53270  0.58805  1.0000
  O   O35       1.0  0.16212  0.96730  0.08805  1.0000
  O   O36       1.0  0.83788  0.46730  0.41195  1.0000
  O   O37       1.0  0.81129  0.55050  0.91540  1.0000
  O   O38       1.0  0.18871  0.05050  0.58460  1.0000
  O   O39       1.0  0.18871  0.44950  0.08460  1.0000
  O   O40       1.0  0.81129  0.94950  0.41540  1.0000
  O   O41       1.0  0.89248  0.42600  0.97355  1.0000
  O   O42       1.0  0.10752  0.92600  0.52645  1.0000
  O   O43       1.0  0.10752  0.57400  0.02645  1.0000
  O   O44       1.0  0.89248  0.07400  0.47355  1.0000
  O   O45       1.0  0.03797  0.75180  0.12392  1.0000
  O   O46       1.0  0.96203  0.25180  0.37608  1.0000
  O   O47       1.0  0.96203  0.24820  0.87608  1.0000
  O   O48       1.0  0.03797  0.74820  0.62392  1.0000
  O   O49       1.0  0.17173  0.69120  0.17075  1.0000
  O   O50       1.0  0.82827  0.19120  0.32925  1.0000
  O   O51       1.0  0.82827  0.30880  0.82925  1.0000
  O   O52       1.0  0.17173  0.80880  0.67075  1.0000
  O   O53       1.0  0.16099  0.51780  0.24049  1.0000
  O   O54       1.0  0.83901  0.01780  0.25951  1.0000
  O   O55       1.0  0.83901  0.48220  0.75951  1.0000
  O   O56       1.0  0.16099  0.98220  0.74049  1.0000
  C   C1        1.0  0.71398  0.30620  0.97030  1.0000
  C   C2        1.0  0.28602  0.80620  0.52970  1.0000
  C   C3        1.0  0.28602  0.69380  0.02970  1.0000
  C   C4        1.0  0.71398  0.19380  0.47030  1.0000
  C   C5        1.0  0.66187  0.29160  0.02730  1.0000
  C   C6        1.0  0.33813  0.79160  0.47270  1.0000
  C   C7        1.0  0.33813  0.70840  0.97270  1.0000
  C   C8        1.0  0.66187  0.20840  0.52730  1.0000
  C   C9        1.0  0.59636  0.33450  0.00790  1.0000
  C   C10       1.0  0.40364  0.83450  0.49210  1.0000
  C   C11       1.0  0.40364  0.66550  0.99210  1.0000
  C   C12       1.0  0.59636  0.16550  0.50790  1.0000
  H   H1        1.0  0.58550  0.37590  0.96230  1.0000
  H   H2        1.0  0.41450  0.87590  0.53770  1.0000
  H   H3        1.0  0.41450  0.62410  0.03770  1.0000
  H   H4        1.0  0.58550  0.12410  0.46230  1.0000
  C   C13       1.0  0.54762  0.31420  0.05790  1.0000
  C   C14       1.0  0.45238  0.81420  0.44210  1.0000
  C   C15       1.0  0.45238  0.68580  0.94210  1.0000
  C   C16       1.0  0.54762  0.18580  0.55790  1.0000
  C   C17       1.0  0.56315  0.25390  0.12630  1.0000
  C   C18       1.0  0.43685  0.75390  0.37370  1.0000
  C   C19       1.0  0.43685  0.74610  0.87370  1.0000
  C   C20       1.0  0.56315  0.24610  0.62630  1.0000
  H   H5        1.0  0.52990  0.24160  0.15900  1.0000
  H   H6        1.0  0.47010  0.74160  0.34100  1.0000
  H   H7        1.0  0.47010  0.75840  0.84100  1.0000
  H   H8        1.0  0.52990  0.25840  0.65900  1.0000
  C   C21       1.0  0.62873  0.21160  0.14600  1.0000
  C   C22       1.0  0.37127  0.71160  0.35400  1.0000
  C   C23       1.0  0.37127  0.78840  0.85400  1.0000
  C   C24       1.0  0.62873  0.28840  0.64600  1.0000
  C   C25       1.0  0.67840  0.23000  0.09530  1.0000
  C   C26       1.0  0.32160  0.73000  0.40470  1.0000
  C   C27       1.0  0.32160  0.77000  0.90470  1.0000
  C   C28       1.0  0.67840  0.27000  0.59530  1.0000
  H   H9        1.0  0.72210  0.20090  0.10730  1.0000
  H   H10       1.0  0.27790  0.70090  0.39270  1.0000
  H   H11       1.0  0.27790  0.79910  0.89270  1.0000
  H   H12       1.0  0.72210  0.29910  0.60730  1.0000
  C   C29       1.0  0.64421  0.14050  0.21900  1.0000
  C   C30       1.0  0.35579  0.64050  0.28100  1.0000
  C   C31       1.0  0.35579  0.85950  0.78100  1.0000
  C   C32       1.0  0.64421  0.35950  0.71900  1.0000
  C   C33       1.0  0.43423  0.25790  0.03590  1.0000
  C   C34       1.0  0.56577  0.75790  0.46410  1.0000
  C   C35       1.0  0.56577  0.74210  0.96410  1.0000
  C   C36       1.0  0.43423  0.24210  0.53590  1.0000
  C   C37       1.0  0.44270  0.14710  0.99280  1.0000
  C   C38       1.0  0.55730  0.64710  0.50720  1.0000
  C   C39       1.0  0.55730  0.85290  0.00720  1.0000
  C   C40       1.0  0.44270  0.35290  0.49280  1.0000
  H   H13       1.0  0.48230  0.13600  0.96950  1.0000
  H   H14       1.0  0.51770  0.63600  0.53050  1.0000
  H   H15       1.0  0.51770  0.86400  0.03050  1.0000
  H   H16       1.0  0.48230  0.36400  0.46950  1.0000
  C   C41       1.0  0.39290  0.05380  0.98460  1.0000
  C   C42       1.0  0.60710  0.55380  0.51540  1.0000
  C   C43       1.0  0.60710  0.94620  0.01540  1.0000
  C   C44       1.0  0.39290  0.44620  0.48460  1.0000
  H   H17       1.0  0.39980  0.97840  0.95730  1.0000
  H   H18       1.0  0.60020  0.47840  0.54270  1.0000
  H   H19       1.0  0.60020  0.02160  0.04270  1.0000
  H   H20       1.0  0.39980  0.52160  0.45730  1.0000
  C   C45       1.0  0.33280  0.07130  0.01650  1.0000
  C   C46       1.0  0.66720  0.57130  0.48350  1.0000
  C   C47       1.0  0.66720  0.92870  0.98350  1.0000
  C   C48       1.0  0.33280  0.42870  0.51650  1.0000
  H   H21       1.0  0.29850  0.00990  0.00930  1.0000
  H   H22       1.0  0.70150  0.50990  0.49070  1.0000
  H   H23       1.0  0.70150  0.99010  0.99070  1.0000
  H   H24       1.0  0.29850  0.49010  0.50930  1.0000
  C   C49       1.0  0.32424  0.18110  0.05940  1.0000
  C   C50       1.0  0.67576  0.68110  0.44060  1.0000
  C   C51       1.0  0.67576  0.81890  0.94060  1.0000
  C   C52       1.0  0.32424  0.31890  0.55940  1.0000
  H   H25       1.0  0.28350  0.19370  0.08020  1.0000
  H   H26       1.0  0.71650  0.69370  0.41980  1.0000
  H   H27       1.0  0.71650  0.80630  0.91980  1.0000
  H   H28       1.0  0.28350  0.30630  0.58020  1.0000
  C   C53       1.0  0.37536  0.27400  0.07220  1.0000
  C   C54       1.0  0.62464  0.77400  0.42780  1.0000
  C   C55       1.0  0.62464  0.72600  0.92780  1.0000
  C   C56       1.0  0.37536  0.22600  0.57220  1.0000
  C   C57       1.0  0.36532  0.37970  0.12820  1.0000
  C   C58       1.0  0.63468  0.87970  0.37180  1.0000
  C   C59       1.0  0.63468  0.62030  0.87180  1.0000
  C   C60       1.0  0.36532  0.12030  0.62820  1.0000
  C   C61       1.0  0.87883  0.02030  0.96770  1.0000
  C   C62       1.0  0.12117  0.52030  0.53230  1.0000
  C   C63       1.0  0.12117  0.97970  0.03230  1.0000
  C   C64       1.0  0.87883  0.47970  0.46770  1.0000
  C   C65       1.0  0.90295  0.88990  0.99600  1.0000
  C   C66       1.0  0.09705  0.38990  0.50400  1.0000
  C   C67       1.0  0.09705  0.11010  0.00400  1.0000
  C   C68       1.0  0.90295  0.61010  0.49600  1.0000
  C   C69       1.0  0.95606  0.88220  0.05070  1.0000
  C   C70       1.0  0.04394  0.38220  0.44930  1.0000
  C   C71       1.0  0.04394  0.11780  0.94930  1.0000
  C   C72       1.0  0.95606  0.61780  0.55070  1.0000
  H   H29       1.0  0.97560  0.95750  0.07170  1.0000
  H   H30       1.0  0.02440  0.45750  0.42830  1.0000
  H   H31       1.0  0.02440  0.04250  0.92830  1.0000
  H   H32       1.0  0.97560  0.54250  0.57170  1.0000
  C   C73       1.0  0.97956  0.76020  0.07380  1.0000
  C   C74       1.0  0.02044  0.26020  0.42620  1.0000
  C   C75       1.0  0.02044  0.23980  0.92620  1.0000
  C   C76       1.0  0.97956  0.73980  0.57380  1.0000
  C   C77       1.0  0.95113  0.64620  0.04490  1.0000
  C   C78       1.0  0.04887  0.14620  0.45510  1.0000
  C   C79       1.0  0.04887  0.35380  0.95510  1.0000
  C   C80       1.0  0.95113  0.85380  0.54490  1.0000
  H   H33       1.0  0.96780  0.56540  0.06120  1.0000
  H   H34       1.0  0.03220  0.06540  0.43880  1.0000
  H   H35       1.0  0.03220  0.43460  0.93880  1.0000
  H   H36       1.0  0.96780  0.93460  0.56120  1.0000
  C   C81       1.0  0.89708  0.65470  0.99090  1.0000
  C   C82       1.0  0.10292  0.15470  0.50910  1.0000
  C   C83       1.0  0.10292  0.34530  0.00910  1.0000
  C   C84       1.0  0.89708  0.84530  0.49090  1.0000
  C   C85       1.0  0.87384  0.77620  0.96620  1.0000
  C   C86       1.0  0.12616  0.27620  0.53380  1.0000
  C   C87       1.0  0.12616  0.22380  0.03380  1.0000
  C   C88       1.0  0.87384  0.72380  0.46620  1.0000
  H   H37       1.0  0.83830  0.78150  0.92930  1.0000
  H   H38       1.0  0.16170  0.28150  0.57070  1.0000
  H   H39       1.0  0.16170  0.21850  0.07070  1.0000
  H   H40       1.0  0.83830  0.71850  0.42930  1.0000
  C   C89       1.0  0.86415  0.53450  0.95710  1.0000
  C   C90       1.0  0.13585  0.03450  0.54290  1.0000
  C   C91       1.0  0.13585  0.46550  0.04290  1.0000
  C   C92       1.0  0.86415  0.96550  0.45710  1.0000
  C   C93       1.0  0.02929  0.75040  0.20060  1.0000
  C   C94       1.0  0.97071  0.25040  0.29940  1.0000
  C   C95       1.0  0.97071  0.24960  0.79940  1.0000
  C   C96       1.0  0.02929  0.74960  0.70060  1.0000
  C   C97       1.0  0.97593  0.81210  0.23050  1.0000
  C   C98       1.0  0.02407  0.31210  0.26950  1.0000
  C   C99       1.0  0.02407  0.18790  0.76950  1.0000
  C   C100      1.0  0.97593  0.68790  0.73050  1.0000
  H   H41       1.0  0.94430  0.85740  0.19940  1.0000
  H   H42       1.0  0.05570  0.35740  0.30060  1.0000
  H   H43       1.0  0.05570  0.14260  0.80060  1.0000
  H   H44       1.0  0.94430  0.64260  0.69940  1.0000
  C   C101      1.0  0.96995  0.80590  0.30710  1.0000
  C   C102      1.0  0.03005  0.30590  0.19290  1.0000
  C   C103      1.0  0.03005  0.19410  0.69290  1.0000
  C   C104      1.0  0.96995  0.69410  0.80710  1.0000
  H   H45       1.0  0.93380  0.84660  0.32700  1.0000
  H   H46       1.0  0.06620  0.34660  0.17300  1.0000
  H   H47       1.0  0.06620  0.15340  0.67300  1.0000
  H   H48       1.0  0.93380  0.65340  0.82700  1.0000
  C   C105      1.0  0.01670  0.74030  0.35430  1.0000
  C   C106      1.0  0.98330  0.24030  0.14570  1.0000
  C   C107      1.0  0.98330  0.25970  0.64570  1.0000
  C   C108      1.0  0.01670  0.75970  0.85430  1.0000
  H   H49       1.0  0.01220  0.73700  0.40550  1.0000
  H   H50       1.0  0.98780  0.23700  0.09450  1.0000
  H   H51       1.0  0.98780  0.26300  0.59450  1.0000
  H   H52       1.0  0.01220  0.76300  0.90550  1.0000
  C   C109      1.0  0.07138  0.67840  0.32370  1.0000
  C   C110      1.0  0.92862  0.17840  0.17630  1.0000
  C   C111      1.0  0.92862  0.32160  0.67630  1.0000
  C   C112      1.0  0.07138  0.82160  0.82370  1.0000
  H   H53       1.0  0.10310  0.63360  0.35490  1.0000
  H   H54       1.0  0.89690  0.13360  0.14510  1.0000
  H   H55       1.0  0.89690  0.36640  0.64510  1.0000
  H   H56       1.0  0.10310  0.86640  0.85490  1.0000
  C   C113      1.0  0.07813  0.68420  0.24690  1.0000
  C   C114      1.0  0.92187  0.18420  0.25310  1.0000
  C   C115      1.0  0.92187  0.31580  0.75310  1.0000
  C   C116      1.0  0.07813  0.81580  0.74690  1.0000
  C   C117      1.0  0.13912  0.62450  0.21780  1.0000
  C   C118      1.0  0.86088  0.12450  0.28220  1.0000
  C   C119      1.0  0.86088  0.37550  0.78220  1.0000
  C   C120      1.0  0.13912  0.87550  0.71780  1.0000
  H   H57       1.0  0.41600  0.50600  0.18400  1.0000
  H   H58       1.0  0.58400  0.00600  0.31600  1.0000
  H   H59       1.0  0.58400  0.49400  0.81600  1.0000
  H   H60       1.0  0.41600  0.99400  0.68400  1.0000
