data_image0
_chemical_formula_structural       Cd4C8H4C8H4C8H4C12H8C8H4C4H4C8H4C4H4C12H4C4H4C4H4C4H4C4O28
_chemical_formula_sum              "Cd4 C88 H52 O28"
_cell_length_a       10.8853
_cell_length_b       10.1209
_cell_length_c       21.357
_cell_angle_alpha    90
_cell_angle_beta     101.102
_cell_angle_gamma    90

_space_group_name_H-M_alt    "P 1"
_space_group_IT_number       1

loop_
  _space_group_symop_operation_xyz
  'x, y, z'

loop_
  _atom_site_type_symbol
  _atom_site_label
  _atom_site_symmetry_multiplicity
  _atom_site_fract_x
  _atom_site_fract_y
  _atom_site_fract_z
  _atom_site_occupancy
  Cd  Cd1       1.0  0.06304  0.12641  0.46245  1.0000
  Cd  Cd2       1.0  0.43696  0.62641  0.03755  1.0000
  Cd  Cd3       1.0  0.93696  0.87359  0.53755  1.0000
  Cd  Cd4       1.0  0.56304  0.37359  0.96245  1.0000
  C   C1        1.0  0.17650  0.49300  0.39966  1.0000
  C   C2        1.0  0.32350  0.99300  0.10034  1.0000
  C   C3        1.0  0.82350  0.50700  0.60034  1.0000
  C   C4        1.0  0.67650  0.00700  0.89966  1.0000
  C   C5        1.0  0.26670  0.50360  0.36239  1.0000
  C   C6        1.0  0.23330  0.00360  0.13761  1.0000
  C   C7        1.0  0.73330  0.49640  0.63761  1.0000
  C   C8        1.0  0.76670  0.99640  0.86239  1.0000
  H   H1        1.0  0.30410  0.42790  0.35000  1.0000
  H   H2        1.0  0.19590  0.92790  0.15000  1.0000
  H   H3        1.0  0.69590  0.57210  0.65000  1.0000
  H   H4        1.0  0.80410  0.07210  0.85000  1.0000
  C   C9        1.0  0.30170  0.62730  0.34330  1.0000
  C   C10       1.0  0.19830  0.12730  0.15670  1.0000
  C   C11       1.0  0.69830  0.37270  0.65670  1.0000
  C   C12       1.0  0.80170  0.87270  0.84330  1.0000
  C   C13       1.0  0.24320  0.74090  0.35953  1.0000
  C   C14       1.0  0.25680  0.24090  0.14047  1.0000
  C   C15       1.0  0.75680  0.25910  0.64047  1.0000
  C   C16       1.0  0.74320  0.75910  0.85953  1.0000
  H   H5        1.0  0.26460  0.82320  0.34550  1.0000
  H   H6        1.0  0.23540  0.32320  0.15450  1.0000
  H   H7        1.0  0.73540  0.17680  0.65450  1.0000
  H   H8        1.0  0.76460  0.67680  0.84550  1.0000
  C   C17       1.0  0.15220  0.73010  0.39690  1.0000
  C   C18       1.0  0.34780  0.23010  0.10310  1.0000
  C   C19       1.0  0.84780  0.26990  0.60310  1.0000
  C   C20       1.0  0.65220  0.76990  0.89690  1.0000
  C   C21       1.0  0.12200  0.60720  0.41869  1.0000
  C   C22       1.0  0.37800  0.10720  0.08131  1.0000
  C   C23       1.0  0.87800  0.39280  0.58131  1.0000
  C   C24       1.0  0.62200  0.89280  0.91869  1.0000
  H   H9        1.0  0.06520  0.60110  0.44600  1.0000
  H   H10       1.0  0.43480  0.10110  0.05400  1.0000
  H   H11       1.0  0.93480  0.39890  0.55400  1.0000
  H   H12       1.0  0.56520  0.89890  0.94600  1.0000
  C   C25       1.0  0.08460  0.85060  0.41417  1.0000
  C   C26       1.0  0.41540  0.35060  0.08583  1.0000
  C   C27       1.0  0.91540  0.14940  0.58583  1.0000
  C   C28       1.0  0.58460  0.64940  0.91417  1.0000
  C   C29       1.0  0.13760  0.35940  0.41958  1.0000
  C   C30       1.0  0.36240  0.85940  0.08042  1.0000
  C   C31       1.0  0.86240  0.64060  0.58042  1.0000
  C   C32       1.0  0.63760  0.14060  0.91958  1.0000
  C   C33       1.0  0.43560  0.74470  0.28499  1.0000
  C   C34       1.0  0.06440  0.24470  0.21501  1.0000
  C   C35       1.0  0.56440  0.25530  0.71501  1.0000
  C   C36       1.0  0.93560  0.75530  0.78499  1.0000
  H   H13       1.0  0.45950  0.80730  0.31960  1.0000
  H   H14       1.0  0.04050  0.30730  0.18040  1.0000
  H   H15       1.0  0.54050  0.19270  0.68040  1.0000
  H   H16       1.0  0.95950  0.69270  0.81960  1.0000
  H   H17       1.0  0.36870  0.78330  0.25370  1.0000
  H   H18       1.0  0.13130  0.28330  0.24630  1.0000
  H   H19       1.0  0.63130  0.21670  0.74630  1.0000
  H   H20       1.0  0.86870  0.71670  0.75370  1.0000
  C   C37       1.0  0.54610  0.71320  0.25478  1.0000
  C   C38       1.0  0.95390  0.21320  0.24522  1.0000
  C   C39       1.0  0.45390  0.28680  0.74522  1.0000
  C   C40       1.0  0.04610  0.78680  0.75478  1.0000
  C   C41       1.0  0.64480  0.80110  0.25982  1.0000
  C   C42       1.0  0.85520  0.30110  0.24018  1.0000
  C   C43       1.0  0.35520  0.19890  0.74018  1.0000
  C   C44       1.0  0.14480  0.69890  0.75982  1.0000
  H   H21       1.0  0.64290  0.87940  0.28240  1.0000
  H   H22       1.0  0.85710  0.37940  0.21760  1.0000
  H   H23       1.0  0.35710  0.12060  0.71760  1.0000
  H   H24       1.0  0.14290  0.62060  0.78240  1.0000
  C   C45       1.0  0.74620  0.77400  0.23157  1.0000
  C   C46       1.0  0.75380  0.27400  0.26843  1.0000
  C   C47       1.0  0.25380  0.22600  0.76843  1.0000
  C   C48       1.0  0.24620  0.72600  0.73157  1.0000
  H   H25       1.0  0.81160  0.83450  0.23570  1.0000
  H   H26       1.0  0.68840  0.33450  0.26430  1.0000
  H   H27       1.0  0.18840  0.16550  0.76430  1.0000
  H   H28       1.0  0.31160  0.66550  0.73570  1.0000
  C   C49       1.0  0.75260  0.65830  0.19719  1.0000
  C   C50       1.0  0.74740  0.15830  0.30281  1.0000
  C   C51       1.0  0.24740  0.34170  0.80281  1.0000
  C   C52       1.0  0.25260  0.84170  0.69719  1.0000
  C   C53       1.0  0.65210  0.57090  0.19199  1.0000
  C   C54       1.0  0.84790  0.07090  0.30801  1.0000
  C   C55       1.0  0.34790  0.42910  0.80801  1.0000
  C   C56       1.0  0.15210  0.92910  0.69199  1.0000
  H   H29       1.0  0.65350  0.49270  0.16930  1.0000
  H   H30       1.0  0.84650  0.99270  0.33070  1.0000
  H   H31       1.0  0.34650  0.50730  0.83070  1.0000
  H   H32       1.0  0.15350  0.00730  0.66930  1.0000
  C   C57       1.0  0.54980  0.59830  0.22007  1.0000
  C   C58       1.0  0.95020  0.09830  0.27993  1.0000
  C   C59       1.0  0.45020  0.40170  0.77993  1.0000
  C   C60       1.0  0.04980  0.90170  0.72007  1.0000
  H   H33       1.0  0.48340  0.53910  0.21550  1.0000
  H   H34       1.0  0.01660  0.03910  0.28450  1.0000
  H   H35       1.0  0.51660  0.46090  0.78450  1.0000
  H   H36       1.0  0.98340  0.96090  0.71550  1.0000
  C   C61       1.0  0.86510  0.62980  0.16916  1.0000
  C   C62       1.0  0.63490  0.12980  0.33084  1.0000
  C   C63       1.0  0.13490  0.37020  0.83084  1.0000
  C   C64       1.0  0.36510  0.87020  0.66916  1.0000
  C   C65       1.0  0.85860  0.57170  0.10899  1.0000
  C   C66       1.0  0.64140  0.07170  0.39101  1.0000
  C   C67       1.0  0.14140  0.42830  0.89101  1.0000
  C   C68       1.0  0.35860  0.92830  0.60899  1.0000
  C   C69       1.0  0.96930  0.54540  0.08745  1.0000
  C   C70       1.0  0.53070  0.04540  0.41255  1.0000
  C   C71       1.0  0.03070  0.45460  0.91255  1.0000
  C   C72       1.0  0.46930  0.95460  0.58745  1.0000
  H   H37       1.0  0.96460  0.50380  0.04820  1.0000
  H   H38       1.0  0.53540  0.00380  0.45180  1.0000
  H   H39       1.0  0.03540  0.49620  0.95180  1.0000
  H   H40       1.0  0.46460  0.99620  0.54820  1.0000
  C   C73       1.0  0.08480  0.57860  0.12203  1.0000
  C   C74       1.0  0.41520  0.07860  0.37797  1.0000
  C   C75       1.0  0.91520  0.42140  0.87797  1.0000
  C   C76       1.0  0.58480  0.92140  0.62203  1.0000
  H   H41       1.0  0.15700  0.56280  0.10600  1.0000
  H   H42       1.0  0.34300  0.06280  0.39400  1.0000
  H   H43       1.0  0.84300  0.43720  0.89400  1.0000
  H   H44       1.0  0.65700  0.93720  0.60600  1.0000
  C   C77       1.0  0.09140  0.63600  0.18126  1.0000
  C   C78       1.0  0.40860  0.13600  0.31874  1.0000
  C   C79       1.0  0.90860  0.36400  0.81874  1.0000
  C   C80       1.0  0.59140  0.86400  0.68126  1.0000
  H   H45       1.0  0.16880  0.65880  0.20570  1.0000
  H   H46       1.0  0.33120  0.15880  0.29430  1.0000
  H   H47       1.0  0.83120  0.34120  0.79430  1.0000
  H   H48       1.0  0.66880  0.84120  0.70570  1.0000
  C   C81       1.0  0.98360  0.65960  0.20427  1.0000
  C   C82       1.0  0.51640  0.15960  0.29573  1.0000
  C   C83       1.0  0.01640  0.34040  0.79573  1.0000
  C   C84       1.0  0.48360  0.84040  0.70427  1.0000
  H   H49       1.0  0.99010  0.69660  0.24460  1.0000
  H   H50       1.0  0.50990  0.19660  0.25540  1.0000
  H   H51       1.0  0.00990  0.30340  0.75540  1.0000
  H   H52       1.0  0.49010  0.80340  0.74460  1.0000
  C   C85       1.0  0.73780  0.53910  0.06441  1.0000
  C   C86       1.0  0.76220  0.03910  0.43559  1.0000
  C   C87       1.0  0.26220  0.46090  0.93559  1.0000
  C   C88       1.0  0.23780  0.96090  0.56441  1.0000
  O   O1        1.0  0.05600  0.35280  0.45285  1.0000
  O   O2        1.0  0.44400  0.85280  0.04715  1.0000
  O   O3        1.0  0.94400  0.64720  0.54715  1.0000
  O   O4        1.0  0.55600  0.14720  0.95285  1.0000
  O   O5        1.0  0.18630  0.25990  0.40304  1.0000
  O   O6        1.0  0.31370  0.75990  0.09696  1.0000
  O   O7        1.0  0.81370  0.74010  0.59696  1.0000
  O   O8        1.0  0.68630  0.24010  0.90304  1.0000
  O   O9        1.0  0.98510  0.83230  0.43505  1.0000
  O   O10       1.0  0.51490  0.33230  0.06495  1.0000
  O   O11       1.0  0.01490  0.16770  0.56495  1.0000
  O   O12       1.0  0.48510  0.66770  0.93505  1.0000
  O   O13       1.0  0.12920  0.96180  0.40599  1.0000
  O   O14       1.0  0.37080  0.46180  0.09401  1.0000
  O   O15       1.0  0.87080  0.03820  0.59401  1.0000
  O   O16       1.0  0.62920  0.53820  0.90599  1.0000
  O   O17       1.0  0.39520  0.62440  0.30848  1.0000
  O   O18       1.0  0.10480  0.12440  0.19152  1.0000
  O   O19       1.0  0.60480  0.37560  0.69152  1.0000
  O   O20       1.0  0.89520  0.87560  0.80848  1.0000
  O   O21       1.0  0.65030  0.62240  0.05944  1.0000
  O   O22       1.0  0.84970  0.12240  0.44056  1.0000
  O   O23       1.0  0.34970  0.37760  0.94056  1.0000
  O   O24       1.0  0.15030  0.87760  0.55944  1.0000
  O   O25       1.0  0.73640  0.43270  0.03438  1.0000
  O   O26       1.0  0.76360  0.93270  0.46562  1.0000
  O   O27       1.0  0.26360  0.56730  0.96562  1.0000
  O   O28       1.0  0.23640  0.06730  0.53438  1.0000
