data_image0
_chemical_formula_structural       C4H6Co2O14H2P4
_chemical_formula_sum              "C4 H8 Co2 O14 P4"
_cell_length_a       5.449
_cell_length_b       11.089
_cell_length_c       11.7483
_cell_angle_alpha    109.514
_cell_angle_beta     94.564
_cell_angle_gamma    102.987

_space_group_name_H-M_alt    "P 1"
_space_group_IT_number       1

loop_
  _space_group_symop_operation_xyz
  'x, y, z'

loop_
  _atom_site_type_symbol
  _atom_site_label
  _atom_site_symmetry_multiplicity
  _atom_site_fract_x
  _atom_site_fract_y
  _atom_site_fract_z
  _atom_site_occupancy
  C   C1        1.0  0.90730  0.80490  0.66690  1.0000
  C   C2        1.0  0.09270  0.19510  0.33310  1.0000
  C   C3        1.0  0.84390  0.93610  0.71450  1.0000
  C   C4        1.0  0.15610  0.06390  0.28550  1.0000
  H   H1        1.0  0.93716  0.98632  0.79584  1.0000
  H   H2        1.0  0.06284  0.01368  0.20416  1.0000
  H   H3        1.0  0.66390  0.92111  0.71621  1.0000
  H   H4        1.0  0.33610  0.07889  0.28379  1.0000
  H   H5        1.0  0.89003  0.98464  0.66187  1.0000
  H   H6        1.0  0.10997  0.01536  0.33813  1.0000
  Co  Co1       1.0  0.22887  0.61571  0.60597  1.0000
  Co  Co2       1.0  0.77113  0.38429  0.39403  1.0000
  O   O1        1.0  0.53830  0.65130  0.74030  1.0000
  O   O2        1.0  0.46170  0.34870  0.25970  1.0000
  O   O3        1.0  0.91440  0.80320  0.89710  1.0000
  O   O4        1.0  0.08560  0.19680  0.10290  1.0000
  O   O5        1.0  0.98360  0.60780  0.73250  1.0000
  O   O6        1.0  0.01640  0.39220  0.26750  1.0000
  O   O7        1.0  0.47610  0.66830  0.49930  1.0000
  O   O8        1.0  0.52390  0.33170  0.50070  1.0000
  O   O9        1.0  0.84610  0.78450  0.42670  1.0000
  O   O10       1.0  0.15390  0.21550  0.57330  1.0000
  O   O11       1.0  0.88130  0.58800  0.47890  1.0000
  O   O12       1.0  0.11870  0.41200  0.52110  1.0000
  O   O13       1.0  0.18500  0.82450  0.67450  1.0000
  O   O14       1.0  0.81500  0.17550  0.32550  1.0000
  H   H7        1.0  0.23011  0.89379  0.64375  1.0000
  H   H8        1.0  0.76989  0.10621  0.35625  1.0000
  P   P1        1.0  0.82640  0.70869  0.76575  1.0000
  P   P2        1.0  0.17360  0.29131  0.23425  1.0000
  P   P3        1.0  0.76460  0.70505  0.50584  1.0000
  P   P4        1.0  0.23540  0.29495  0.49416  1.0000
