data_image0
_chemical_formula_structural       U8O72C24H16C16H16C8
_chemical_formula_sum              "U8 O72 C48 H32"
_cell_length_a       17.3514
_cell_length_b       17.2886
_cell_length_c       15.45
_cell_angle_alpha    90
_cell_angle_beta     118.538
_cell_angle_gamma    90

_space_group_name_H-M_alt    "P 1"
_space_group_IT_number       1

loop_
  _space_group_symop_operation_xyz
  'x, y, z'

loop_
  _atom_site_type_symbol
  _atom_site_label
  _atom_site_symmetry_multiplicity
  _atom_site_fract_x
  _atom_site_fract_y
  _atom_site_fract_z
  _atom_site_occupancy
  U   U1        1.0  0.37087  0.28546  0.18355  1.0000
  U   U2        1.0  0.87087  0.78546  0.18355  1.0000
  U   U3        1.0  0.62913  0.28546  0.31645  1.0000
  U   U4        1.0  0.12913  0.78546  0.31645  1.0000
  U   U5        1.0  0.62913  0.71454  0.81645  1.0000
  U   U6        1.0  0.12913  0.21454  0.81645  1.0000
  U   U7        1.0  0.37087  0.71454  0.68355  1.0000
  U   U8        1.0  0.87087  0.21454  0.68355  1.0000
  O   O1        1.0  0.36140  0.38680  0.18920  1.0000
  O   O2        1.0  0.86140  0.88680  0.18920  1.0000
  O   O3        1.0  0.63860  0.38680  0.31080  1.0000
  O   O4        1.0  0.13860  0.88680  0.31080  1.0000
  O   O5        1.0  0.63860  0.61320  0.81080  1.0000
  O   O6        1.0  0.13860  0.11320  0.81080  1.0000
  O   O7        1.0  0.36140  0.61320  0.68920  1.0000
  O   O8        1.0  0.86140  0.11320  0.68920  1.0000
  O   O9        1.0  0.37690  0.18140  0.17480  1.0000
  O   O10       1.0  0.87690  0.68140  0.17480  1.0000
  O   O11       1.0  0.62310  0.18140  0.32520  1.0000
  O   O12       1.0  0.12310  0.68140  0.32520  1.0000
  O   O13       1.0  0.62310  0.81860  0.82520  1.0000
  O   O14       1.0  0.12310  0.31860  0.82520  1.0000
  O   O15       1.0  0.37690  0.81860  0.67480  1.0000
  O   O16       1.0  0.87690  0.31860  0.67480  1.0000
  O   O17       1.0  0.50070  0.29000  0.33720  1.0000
  O   O18       1.0  0.00070  0.79000  0.33720  1.0000
  O   O19       1.0  0.49930  0.29000  0.16280  1.0000
  O   O20       1.0  0.99930  0.79000  0.16280  1.0000
  O   O21       1.0  0.49930  0.71000  0.66280  1.0000
  O   O22       1.0  0.99930  0.21000  0.66280  1.0000
  O   O23       1.0  0.50070  0.71000  0.83720  1.0000
  O   O24       1.0  0.00070  0.21000  0.83720  1.0000
  O   O25       1.0  0.34510  0.26960  0.31840  1.0000
  O   O26       1.0  0.84510  0.76960  0.31840  1.0000
  O   O27       1.0  0.65490  0.26960  0.18160  1.0000
  O   O28       1.0  0.15490  0.76960  0.18160  1.0000
  O   O29       1.0  0.65490  0.73040  0.68160  1.0000
  O   O30       1.0  0.15490  0.23040  0.68160  1.0000
  O   O31       1.0  0.34510  0.73040  0.81840  1.0000
  O   O32       1.0  0.84510  0.23040  0.81840  1.0000
  O   O33       1.0  0.38890  0.27330  0.47990  1.0000
  O   O34       1.0  0.88890  0.77330  0.47990  1.0000
  O   O35       1.0  0.61110  0.27330  0.02010  1.0000
  O   O36       1.0  0.11110  0.77330  0.02010  1.0000
  O   O37       1.0  0.61110  0.72670  0.52010  1.0000
  O   O38       1.0  0.11110  0.22670  0.52010  1.0000
  O   O39       1.0  0.38890  0.72670  0.97990  1.0000
  O   O40       1.0  0.88890  0.22670  0.97990  1.0000
  O   O41       1.0  0.32070  0.30040  0.01450  1.0000
  O   O42       1.0  0.82070  0.80040  0.01450  1.0000
  O   O43       1.0  0.67930  0.30040  0.48550  1.0000
  O   O44       1.0  0.17930  0.80040  0.48550  1.0000
  O   O45       1.0  0.67930  0.69960  0.98550  1.0000
  O   O46       1.0  0.17930  0.19960  0.98550  1.0000
  O   O47       1.0  0.32070  0.69960  0.51450  1.0000
  O   O48       1.0  0.82070  0.19960  0.51450  1.0000
  O   O49       1.0  0.28510  0.22620  0.88290  1.0000
  O   O50       1.0  0.78510  0.72620  0.88290  1.0000
  O   O51       1.0  0.71490  0.22620  0.61710  1.0000
  O   O52       1.0  0.21490  0.72620  0.61710  1.0000
  O   O53       1.0  0.71490  0.77380  0.11710  1.0000
  O   O54       1.0  0.21490  0.27380  0.11710  1.0000
  O   O55       1.0  0.28510  0.77380  0.38290  1.0000
  O   O56       1.0  0.78510  0.27380  0.38290  1.0000
  O   O57       1.0  0.51190  0.42640  0.91380  1.0000
  O   O58       1.0  0.01190  0.92640  0.91380  1.0000
  O   O59       1.0  0.48810  0.42640  0.58620  1.0000
  O   O60       1.0  0.98810  0.92640  0.58620  1.0000
  O   O61       1.0  0.48810  0.57360  0.08620  1.0000
  O   O62       1.0  0.98810  0.07360  0.08620  1.0000
  O   O63       1.0  0.51190  0.57360  0.41380  1.0000
  O   O64       1.0  0.01190  0.07360  0.41380  1.0000
  O   O65       1.0  0.37490  0.39530  0.88000  1.0000
  O   O66       1.0  0.87490  0.89530  0.88000  1.0000
  O   O67       1.0  0.62510  0.39530  0.62000  1.0000
  O   O68       1.0  0.12510  0.89530  0.62000  1.0000
  O   O69       1.0  0.62510  0.60470  0.12000  1.0000
  O   O70       1.0  0.12510  0.10470  0.12000  1.0000
  O   O71       1.0  0.37490  0.60470  0.38000  1.0000
  O   O72       1.0  0.87490  0.10470  0.38000  1.0000
  C   C1        1.0  0.49760  0.29960  0.42710  1.0000
  C   C2        1.0  0.99760  0.79960  0.42710  1.0000
  C   C3        1.0  0.50240  0.29960  0.07290  1.0000
  C   C4        1.0  0.00240  0.79960  0.07290  1.0000
  C   C5        1.0  0.50240  0.70040  0.57290  1.0000
  C   C6        1.0  0.00240  0.20040  0.57290  1.0000
  C   C7        1.0  0.49760  0.70040  0.92710  1.0000
  C   C8        1.0  0.99760  0.20040  0.92710  1.0000
  C   C9        1.0  0.40320  0.27830  0.41010  1.0000
  C   C10       1.0  0.90320  0.77830  0.41010  1.0000
  C   C11       1.0  0.59680  0.27830  0.08990  1.0000
  C   C12       1.0  0.09680  0.77830  0.08990  1.0000
  C   C13       1.0  0.59680  0.72170  0.58990  1.0000
  C   C14       1.0  0.09680  0.22170  0.58990  1.0000
  C   C15       1.0  0.40320  0.72170  0.91010  1.0000
  C   C16       1.0  0.90320  0.22170  0.91010  1.0000
  C   C17       1.0  0.56300  0.24570  0.50820  1.0000
  C   C18       1.0  0.06300  0.74570  0.50820  1.0000
  C   C19       1.0  0.43700  0.24570  0.99180  1.0000
  C   C20       1.0  0.93700  0.74570  0.99180  1.0000
  C   C21       1.0  0.43700  0.75430  0.49180  1.0000
  C   C22       1.0  0.93700  0.25430  0.49180  1.0000
  C   C23       1.0  0.56300  0.75430  0.00820  1.0000
  C   C24       1.0  0.06300  0.25430  0.00820  1.0000
  H   H1        1.0  0.54870  0.19280  0.48510  1.0000
  H   H2        1.0  0.04870  0.69280  0.48510  1.0000
  H   H3        1.0  0.45130  0.19280  0.01490  1.0000
  H   H4        1.0  0.95130  0.69280  0.01490  1.0000
  H   H5        1.0  0.45130  0.80720  0.51490  1.0000
  H   H6        1.0  0.95130  0.30720  0.51490  1.0000
  H   H7        1.0  0.54870  0.80720  0.98510  1.0000
  H   H8        1.0  0.04870  0.30720  0.98510  1.0000
  H   H9        1.0  0.55450  0.25090  0.56560  1.0000
  H   H10       1.0  0.05450  0.75090  0.56560  1.0000
  H   H11       1.0  0.44550  0.25090  0.93440  1.0000
  H   H12       1.0  0.94550  0.75090  0.93440  1.0000
  H   H13       1.0  0.44550  0.74910  0.43440  1.0000
  H   H14       1.0  0.94550  0.24910  0.43440  1.0000
  H   H15       1.0  0.55450  0.74910  0.06560  1.0000
  H   H16       1.0  0.05450  0.24910  0.06560  1.0000
  C   C25       1.0  0.34080  0.25910  0.95980  1.0000
  C   C26       1.0  0.84080  0.75910  0.95980  1.0000
  C   C27       1.0  0.65920  0.25910  0.54020  1.0000
  C   C28       1.0  0.15920  0.75910  0.54020  1.0000
  C   C29       1.0  0.65920  0.74090  0.04020  1.0000
  C   C30       1.0  0.15920  0.24090  0.04020  1.0000
  C   C31       1.0  0.34080  0.74090  0.45980  1.0000
  C   C32       1.0  0.84080  0.24090  0.45980  1.0000
  C   C33       1.0  0.48720  0.38660  0.04650  1.0000
  C   C34       1.0  0.98720  0.88660  0.04650  1.0000
  C   C35       1.0  0.51280  0.38660  0.45350  1.0000
  C   C36       1.0  0.01280  0.88660  0.45350  1.0000
  C   C37       1.0  0.51280  0.61340  0.95350  1.0000
  C   C38       1.0  0.01280  0.11340  0.95350  1.0000
  C   C39       1.0  0.48720  0.61340  0.54650  1.0000
  C   C40       1.0  0.98720  0.11340  0.54650  1.0000
  H   H17       1.0  0.54180  0.41400  0.08550  1.0000
  H   H18       1.0  0.04180  0.91400  0.08550  1.0000
  H   H19       1.0  0.45820  0.41400  0.41450  1.0000
  H   H20       1.0  0.95820  0.91400  0.41450  1.0000
  H   H21       1.0  0.45820  0.58600  0.91450  1.0000
  H   H22       1.0  0.95820  0.08600  0.91450  1.0000
  H   H23       1.0  0.54180  0.58600  0.58550  1.0000
  H   H24       1.0  0.04180  0.08600  0.58550  1.0000
  H   H25       1.0  0.44470  0.40610  0.06490  1.0000
  H   H26       1.0  0.94470  0.90610  0.06490  1.0000
  H   H27       1.0  0.55530  0.40610  0.43510  1.0000
  H   H28       1.0  0.05530  0.90610  0.43510  1.0000
  H   H29       1.0  0.55530  0.59390  0.93510  1.0000
  H   H30       1.0  0.05530  0.09390  0.93510  1.0000
  H   H31       1.0  0.44470  0.59390  0.56490  1.0000
  H   H32       1.0  0.94470  0.09390  0.56490  1.0000
  C   C41       1.0  0.45580  0.40450  0.94070  1.0000
  C   C42       1.0  0.95580  0.90450  0.94070  1.0000
  C   C43       1.0  0.54420  0.40450  0.55930  1.0000
  C   C44       1.0  0.04420  0.90450  0.55930  1.0000
  C   C45       1.0  0.54420  0.59550  0.05930  1.0000
  C   C46       1.0  0.04420  0.09550  0.05930  1.0000
  C   C47       1.0  0.45580  0.59550  0.44070  1.0000
  C   C48       1.0  0.95580  0.09550  0.44070  1.0000
