data_image0
_chemical_formula_structural       Co4V4W48O160N32C8H8C16H8C8H8C8H8C8H8C8H16C16H8C8H8C8H8C8H16C8H8C8H8
_chemical_formula_sum              "Co4 V4 W48 O160 N32 C112 H112"
_cell_length_a       22.024
_cell_length_b       15.065
_cell_length_c       24.12
_cell_angle_alpha    90
_cell_angle_beta     90
_cell_angle_gamma    90

_space_group_name_H-M_alt    "P 1"
_space_group_IT_number       1

loop_
  _space_group_symop_operation_xyz
  'x, y, z'

loop_
  _atom_site_type_symbol
  _atom_site_label
  _atom_site_symmetry_multiplicity
  _atom_site_fract_x
  _atom_site_fract_y
  _atom_site_fract_z
  _atom_site_occupancy
  Co  Co1       1.0  0.50000  0.00000  0.50000  1.0000
  Co  Co2       1.0  0.00000  0.50000  0.00000  1.0000
  Co  Co3       1.0  0.00000  0.50000  0.50000  1.0000
  Co  Co4       1.0  0.50000  0.00000  0.00000  1.0000
  V   V1        1.0  0.50000  0.73400  0.25000  1.0000
  V   V2        1.0  0.00000  0.76600  0.75000  1.0000
  V   V3        1.0  0.50000  0.26600  0.75000  1.0000
  V   V4        1.0  0.00000  0.23400  0.25000  1.0000
  W   W1        1.0  0.51995  0.89880  0.35111  1.0000
  W   W2        1.0  0.98005  0.60120  0.85111  1.0000
  W   W3        1.0  0.01995  0.60120  0.64889  1.0000
  W   W4        1.0  0.48005  0.89880  0.14889  1.0000
  W   W5        1.0  0.48005  0.10120  0.64889  1.0000
  W   W6        1.0  0.01995  0.39880  0.14889  1.0000
  W   W7        1.0  0.98005  0.39880  0.35111  1.0000
  W   W8        1.0  0.51995  0.10120  0.85111  1.0000
  W   W9        1.0  0.61188  0.89840  0.24136  1.0000
  W   W10       1.0  0.88812  0.60160  0.74136  1.0000
  W   W11       1.0  0.11188  0.60160  0.75864  1.0000
  W   W12       1.0  0.38812  0.89840  0.25864  1.0000
  W   W13       1.0  0.38812  0.10160  0.75864  1.0000
  W   W14       1.0  0.11188  0.39840  0.25864  1.0000
  W   W15       1.0  0.88812  0.39840  0.24136  1.0000
  W   W16       1.0  0.61188  0.10160  0.74136  1.0000
  W   W17       1.0  0.62609  0.74145  0.33905  1.0000
  W   W18       1.0  0.87391  0.75855  0.83905  1.0000
  W   W19       1.0  0.12609  0.75855  0.66095  1.0000
  W   W20       1.0  0.37391  0.74145  0.16095  1.0000
  W   W21       1.0  0.37391  0.25855  0.66095  1.0000
  W   W22       1.0  0.12609  0.24145  0.16095  1.0000
  W   W23       1.0  0.87391  0.24145  0.33905  1.0000
  W   W24       1.0  0.62609  0.25855  0.83905  1.0000
  W   W25       1.0  0.49140  0.56770  0.14839  1.0000
  W   W26       1.0  0.00860  0.93230  0.64839  1.0000
  W   W27       1.0  0.99140  0.93230  0.85161  1.0000
  W   W28       1.0  0.50860  0.56770  0.35161  1.0000
  W   W29       1.0  0.50860  0.43230  0.85161  1.0000
  W   W30       1.0  0.99140  0.06770  0.35161  1.0000
  W   W31       1.0  0.00860  0.06770  0.14839  1.0000
  W   W32       1.0  0.49140  0.43230  0.64839  1.0000
  W   W33       1.0  0.59691  0.72435  0.13469  1.0000
  W   W34       1.0  0.90309  0.77565  0.63469  1.0000
  W   W35       1.0  0.09691  0.77565  0.86531  1.0000
  W   W36       1.0  0.40309  0.72435  0.36531  1.0000
  W   W37       1.0  0.40309  0.27565  0.86531  1.0000
  W   W38       1.0  0.09691  0.22435  0.36531  1.0000
  W   W39       1.0  0.90309  0.22435  0.13469  1.0000
  W   W40       1.0  0.59691  0.27565  0.63469  1.0000
  W   W41       1.0  0.61176  0.56872  0.23194  1.0000
  W   W42       1.0  0.88824  0.93128  0.73194  1.0000
  W   W43       1.0  0.11176  0.93128  0.76806  1.0000
  W   W44       1.0  0.38824  0.56872  0.26806  1.0000
  W   W45       1.0  0.38824  0.43128  0.76806  1.0000
  W   W46       1.0  0.11176  0.06872  0.26806  1.0000
  W   W47       1.0  0.88824  0.06872  0.23194  1.0000
  W   W48       1.0  0.61176  0.43128  0.73194  1.0000
  O   O1        1.0  0.64340  0.63580  0.17110  1.0000
  O   O2        1.0  0.85660  0.86420  0.67110  1.0000
  O   O3        1.0  0.14340  0.86420  0.82890  1.0000
  O   O4        1.0  0.35660  0.63580  0.32890  1.0000
  O   O5        1.0  0.35660  0.36420  0.82890  1.0000
  O   O6        1.0  0.14340  0.13580  0.32890  1.0000
  O   O7        1.0  0.85660  0.13580  0.17110  1.0000
  O   O8        1.0  0.64340  0.36420  0.67110  1.0000
  O   O9        1.0  0.66460  0.97670  0.22220  1.0000
  O   O10       1.0  0.83540  0.52330  0.72220  1.0000
  O   O11       1.0  0.16460  0.52330  0.77780  1.0000
  O   O12       1.0  0.33540  0.97670  0.27780  1.0000
  O   O13       1.0  0.33540  0.02330  0.77780  1.0000
  O   O14       1.0  0.16460  0.47670  0.27780  1.0000
  O   O15       1.0  0.83540  0.47670  0.22220  1.0000
  O   O16       1.0  0.66460  0.02330  0.72220  1.0000
  O   O17       1.0  0.46830  0.80750  0.37540  1.0000
  O   O18       1.0  0.03170  0.69250  0.87540  1.0000
  O   O19       1.0  0.96830  0.69250  0.62460  1.0000
  O   O20       1.0  0.53170  0.80750  0.12460  1.0000
  O   O21       1.0  0.53170  0.19250  0.62460  1.0000
  O   O22       1.0  0.96830  0.30750  0.12460  1.0000
  O   O23       1.0  0.03170  0.30750  0.37540  1.0000
  O   O24       1.0  0.46830  0.19250  0.87540  1.0000
  O   O25       1.0  0.64040  0.66150  0.28020  1.0000
  O   O26       1.0  0.85960  0.83850  0.78020  1.0000
  O   O27       1.0  0.14040  0.83850  0.71980  1.0000
  O   O28       1.0  0.35960  0.66150  0.21980  1.0000
  O   O29       1.0  0.35960  0.33850  0.71980  1.0000
  O   O30       1.0  0.14040  0.16150  0.21980  1.0000
  O   O31       1.0  0.85960  0.16150  0.28020  1.0000
  O   O32       1.0  0.64040  0.33850  0.78020  1.0000
  O   O33       1.0  0.43260  0.65980  0.13510  1.0000
  O   O34       1.0  0.06740  0.84020  0.63510  1.0000
  O   O35       1.0  0.93260  0.84020  0.86490  1.0000
  O   O36       1.0  0.56740  0.65980  0.36490  1.0000
  O   O37       1.0  0.56740  0.34020  0.86490  1.0000
  O   O38       1.0  0.93260  0.15980  0.36490  1.0000
  O   O39       1.0  0.06740  0.15980  0.13510  1.0000
  O   O40       1.0  0.43260  0.34020  0.63510  1.0000
  O   O41       1.0  0.66020  0.83180  0.29210  1.0000
  O   O42       1.0  0.83980  0.66820  0.79210  1.0000
  O   O43       1.0  0.16020  0.66820  0.70790  1.0000
  O   O44       1.0  0.33980  0.83180  0.20790  1.0000
  O   O45       1.0  0.33980  0.16820  0.70790  1.0000
  O   O46       1.0  0.16020  0.33180  0.20790  1.0000
  O   O47       1.0  0.83980  0.33180  0.29210  1.0000
  O   O48       1.0  0.66020  0.16820  0.79210  1.0000
  O   O49       1.0  0.58740  0.83370  0.38040  1.0000
  O   O50       1.0  0.91260  0.66630  0.88040  1.0000
  O   O51       1.0  0.08740  0.66630  0.61960  1.0000
  O   O52       1.0  0.41260  0.83370  0.11960  1.0000
  O   O53       1.0  0.41260  0.16630  0.61960  1.0000
  O   O54       1.0  0.08740  0.33370  0.11960  1.0000
  O   O55       1.0  0.91260  0.33370  0.38040  1.0000
  O   O56       1.0  0.58740  0.16630  0.88040  1.0000
  O   O57       1.0  0.57560  0.95960  0.30430  1.0000
  O   O58       1.0  0.92440  0.54040  0.80430  1.0000
  O   O59       1.0  0.07560  0.54040  0.69570  1.0000
  O   O60       1.0  0.42440  0.95960  0.19570  1.0000
  O   O61       1.0  0.42440  0.04040  0.69570  1.0000
  O   O62       1.0  0.07560  0.45960  0.19570  1.0000
  O   O63       1.0  0.92440  0.45960  0.30430  1.0000
  O   O64       1.0  0.57560  0.04040  0.80430  1.0000
  O   O65       1.0  0.54710  0.79570  0.28350  1.0000
  O   O66       1.0  0.95290  0.70430  0.78350  1.0000
  O   O67       1.0  0.04710  0.70430  0.71650  1.0000
  O   O68       1.0  0.45290  0.79570  0.21650  1.0000
  O   O69       1.0  0.45290  0.20430  0.71650  1.0000
  O   O70       1.0  0.04710  0.29570  0.21650  1.0000
  O   O71       1.0  0.95290  0.29570  0.28350  1.0000
  O   O72       1.0  0.54710  0.20430  0.78350  1.0000
  O   O73       1.0  0.51390  0.97050  0.40570  1.0000
  O   O74       1.0  0.98610  0.52950  0.90570  1.0000
  O   O75       1.0  0.01390  0.52950  0.59430  1.0000
  O   O76       1.0  0.48610  0.97050  0.09430  1.0000
  O   O77       1.0  0.48610  0.02950  0.59430  1.0000
  O   O78       1.0  0.01390  0.47050  0.09430  1.0000
  O   O79       1.0  0.98610  0.47050  0.40570  1.0000
  O   O80       1.0  0.51390  0.02950  0.90570  1.0000
  O   O81       1.0  0.45700  0.93240  0.30320  1.0000
  O   O82       1.0  0.04300  0.56760  0.80320  1.0000
  O   O83       1.0  0.95700  0.56760  0.69680  1.0000
  O   O84       1.0  0.54300  0.93240  0.19680  1.0000
  O   O85       1.0  0.54300  0.06760  0.69680  1.0000
  O   O86       1.0  0.95700  0.43240  0.19680  1.0000
  O   O87       1.0  0.04300  0.43240  0.30320  1.0000
  O   O88       1.0  0.45700  0.06760  0.80320  1.0000
  O   O89       1.0  0.54580  0.63510  0.10350  1.0000
  O   O90       1.0  0.95420  0.86490  0.60350  1.0000
  O   O91       1.0  0.04580  0.86490  0.89650  1.0000
  O   O92       1.0  0.45420  0.63510  0.39650  1.0000
  O   O93       1.0  0.45420  0.36490  0.89650  1.0000
  O   O94       1.0  0.04580  0.13510  0.39650  1.0000
  O   O95       1.0  0.95420  0.13510  0.10350  1.0000
  O   O96       1.0  0.54580  0.36490  0.60350  1.0000
  O   O97       1.0  0.44150  0.53680  0.21100  1.0000
  O   O98       1.0  0.05850  0.96320  0.71100  1.0000
  O   O99       1.0  0.94150  0.96320  0.78900  1.0000
  O   O100      1.0  0.55850  0.53680  0.28900  1.0000
  O   O101      1.0  0.55850  0.46320  0.78900  1.0000
  O   O102      1.0  0.94150  0.03680  0.28900  1.0000
  O   O103      1.0  0.05850  0.03680  0.21100  1.0000
  O   O104      1.0  0.44150  0.46320  0.71100  1.0000
  O   O105      1.0  0.55880  0.50870  0.18030  1.0000
  O   O106      1.0  0.94120  0.99130  0.68030  1.0000
  O   O107      1.0  0.05880  0.99130  0.81970  1.0000
  O   O108      1.0  0.44120  0.50870  0.31970  1.0000
  O   O109      1.0  0.44120  0.49130  0.81970  1.0000
  O   O110      1.0  0.05880  0.00870  0.31970  1.0000
  O   O111      1.0  0.94120  0.00870  0.18030  1.0000
  O   O112      1.0  0.55880  0.49130  0.68030  1.0000
  O   O113      1.0  0.62570  0.80790  0.18850  1.0000
  O   O114      1.0  0.87430  0.69210  0.68850  1.0000
  O   O115      1.0  0.12570  0.69210  0.81150  1.0000
  O   O116      1.0  0.37430  0.80790  0.31150  1.0000
  O   O117      1.0  0.37430  0.19210  0.81150  1.0000
  O   O118      1.0  0.12570  0.30790  0.31150  1.0000
  O   O119      1.0  0.87430  0.30790  0.18850  1.0000
  O   O120      1.0  0.62570  0.19210  0.68850  1.0000
  O   O121      1.0  0.47000  0.49180  0.10070  1.0000
  O   O122      1.0  0.03000  0.00820  0.60070  1.0000
  O   O123      1.0  0.97000  0.00820  0.89930  1.0000
  O   O124      1.0  0.53000  0.49180  0.39930  1.0000
  O   O125      1.0  0.53000  0.50820  0.89930  1.0000
  O   O126      1.0  0.97000  0.99180  0.39930  1.0000
  O   O127      1.0  0.03000  0.99180  0.10070  1.0000
  O   O128      1.0  0.47000  0.50820  0.60070  1.0000
  O   O129      1.0  0.64320  0.74610  0.07940  1.0000
  O   O130      1.0  0.85680  0.75390  0.57940  1.0000
  O   O131      1.0  0.14320  0.75390  0.92060  1.0000
  O   O132      1.0  0.35680  0.74610  0.42060  1.0000
  O   O133      1.0  0.35680  0.25390  0.92060  1.0000
  O   O134      1.0  0.14320  0.24610  0.42060  1.0000
  O   O135      1.0  0.85680  0.24610  0.07940  1.0000
  O   O136      1.0  0.64320  0.25390  0.57940  1.0000
  O   O137      1.0  0.53710  0.67190  0.20650  1.0000
  O   O138      1.0  0.96290  0.82810  0.70650  1.0000
  O   O139      1.0  0.03710  0.82810  0.79350  1.0000
  O   O140      1.0  0.46290  0.67190  0.29350  1.0000
  O   O141      1.0  0.46290  0.32810  0.79350  1.0000
  O   O142      1.0  0.03710  0.17190  0.29350  1.0000
  O   O143      1.0  0.96290  0.17190  0.20650  1.0000
  O   O144      1.0  0.53710  0.32810  0.70650  1.0000
  O   O145      1.0  0.68530  0.72010  0.38200  1.0000
  O   O146      1.0  0.81470  0.77990  0.88200  1.0000
  O   O147      1.0  0.18530  0.77990  0.61800  1.0000
  O   O148      1.0  0.31470  0.72010  0.11800  1.0000
  O   O149      1.0  0.31470  0.27990  0.61800  1.0000
  O   O150      1.0  0.18530  0.22010  0.11800  1.0000
  O   O151      1.0  0.81470  0.22010  0.38200  1.0000
  O   O152      1.0  0.68530  0.27990  0.88200  1.0000
  O   O153      1.0  0.66740  0.49150  0.23830  1.0000
  O   O154      1.0  0.83260  0.00850  0.73830  1.0000
  O   O155      1.0  0.16740  0.00850  0.76170  1.0000
  O   O156      1.0  0.33260  0.49150  0.26170  1.0000
  O   O157      1.0  0.33260  0.50850  0.76170  1.0000
  O   O158      1.0  0.16740  0.99150  0.26170  1.0000
  O   O159      1.0  0.83260  0.99150  0.23830  1.0000
  O   O160      1.0  0.66740  0.50850  0.73830  1.0000
  N   N1        1.0  0.40670  0.00350  0.48630  1.0000
  N   N2        1.0  0.09330  0.49650  0.98630  1.0000
  N   N3        1.0  0.90670  0.49650  0.51370  1.0000
  N   N4        1.0  0.59330  0.00350  0.01370  1.0000
  N   N5        1.0  0.59330  0.99650  0.51370  1.0000
  N   N6        1.0  0.90670  0.50350  0.01370  1.0000
  N   N7        1.0  0.09330  0.50350  0.48630  1.0000
  N   N8        1.0  0.40670  0.99650  0.98630  1.0000
  N   N9        1.0  0.32070  0.98070  0.43950  1.0000
  N   N10       1.0  0.17930  0.51930  0.93950  1.0000
  N   N11       1.0  0.82070  0.51930  0.56050  1.0000
  N   N12       1.0  0.67930  0.98070  0.06050  1.0000
  N   N13       1.0  0.67930  0.01930  0.56050  1.0000
  N   N14       1.0  0.82070  0.48070  0.06050  1.0000
  N   N15       1.0  0.17930  0.48070  0.43950  1.0000
  N   N16       1.0  0.32070  0.01930  0.93950  1.0000
  N   N17       1.0  0.99670  0.63560  0.47890  1.0000
  N   N18       1.0  0.50330  0.86440  0.97890  1.0000
  N   N19       1.0  0.49670  0.86440  0.52110  1.0000
  N   N20       1.0  0.00330  0.63560  0.02110  1.0000
  N   N21       1.0  0.00330  0.36440  0.52110  1.0000
  N   N22       1.0  0.49670  0.13560  0.02110  1.0000
  N   N23       1.0  0.50330  0.13560  0.47890  1.0000
  N   N24       1.0  0.99670  0.36440  0.97890  1.0000
  N   N25       1.0  0.01750  0.77720  0.47630  1.0000
  N   N26       1.0  0.48250  0.72280  0.97630  1.0000
  N   N27       1.0  0.51750  0.72280  0.52370  1.0000
  N   N28       1.0  0.98250  0.77720  0.02370  1.0000
  N   N29       1.0  0.98250  0.22280  0.52370  1.0000
  N   N30       1.0  0.51750  0.27720  0.02370  1.0000
  N   N31       1.0  0.48250  0.27720  0.47630  1.0000
  N   N32       1.0  0.01750  0.22280  0.97630  1.0000
  C   C1        1.0  0.17380  0.98310  0.42490  1.0000
  C   C2        1.0  0.32620  0.51690  0.92490  1.0000
  C   C3        1.0  0.67380  0.51690  0.57510  1.0000
  C   C4        1.0  0.82620  0.98310  0.07510  1.0000
  C   C5        1.0  0.82620  0.01690  0.57510  1.0000
  C   C6        1.0  0.67380  0.48310  0.07510  1.0000
  C   C7        1.0  0.32620  0.48310  0.42490  1.0000
  C   C8        1.0  0.17380  0.01690  0.92490  1.0000
  H   H1        1.0  0.18130  0.03950  0.41080  1.0000
  H   H2        1.0  0.31870  0.46050  0.91080  1.0000
  H   H3        1.0  0.68130  0.46050  0.58920  1.0000
  H   H4        1.0  0.81870  0.03950  0.08920  1.0000
  H   H5        1.0  0.81870  0.96050  0.58920  1.0000
  H   H6        1.0  0.68130  0.53950  0.08920  1.0000
  H   H7        1.0  0.31870  0.53950  0.41080  1.0000
  H   H8        1.0  0.18130  0.96050  0.91080  1.0000
  C   C9        1.0  0.10410  0.88180  0.46890  1.0000
  C   C10       1.0  0.39590  0.61820  0.96890  1.0000
  C   C11       1.0  0.60410  0.61820  0.53110  1.0000
  C   C12       1.0  0.89590  0.88180  0.03110  1.0000
  C   C13       1.0  0.89590  0.11820  0.53110  1.0000
  C   C14       1.0  0.60410  0.38180  0.03110  1.0000
  C   C15       1.0  0.39590  0.38180  0.46890  1.0000
  C   C16       1.0  0.10410  0.11820  0.96890  1.0000
  C   C17       1.0  0.98830  0.75540  0.42800  1.0000
  C   C18       1.0  0.51170  0.74460  0.92800  1.0000
  C   C19       1.0  0.48830  0.74460  0.57200  1.0000
  C   C20       1.0  0.01170  0.75540  0.07200  1.0000
  C   C21       1.0  0.01170  0.24460  0.57200  1.0000
  C   C22       1.0  0.48830  0.25540  0.07200  1.0000
  C   C23       1.0  0.51170  0.25540  0.42800  1.0000
  C   C24       1.0  0.98830  0.24460  0.92800  1.0000
  H   H9        1.0  0.97820  0.79410  0.39940  1.0000
  H   H10       1.0  0.52180  0.70590  0.89940  1.0000
  H   H11       1.0  0.47820  0.70590  0.60060  1.0000
  H   H12       1.0  0.02180  0.79410  0.10060  1.0000
  H   H13       1.0  0.02180  0.20590  0.60060  1.0000
  H   H14       1.0  0.47820  0.29410  0.10060  1.0000
  H   H15       1.0  0.52180  0.29410  0.39940  1.0000
  H   H16       1.0  0.97820  0.20590  0.89940  1.0000
  C   C25       1.0  0.02050  0.70240  0.50700  1.0000
  C   C26       1.0  0.47950  0.79760  0.00700  1.0000
  C   C27       1.0  0.52050  0.79760  0.49300  1.0000
  C   C28       1.0  0.97950  0.70240  0.99300  1.0000
  C   C29       1.0  0.97950  0.29760  0.49300  1.0000
  C   C30       1.0  0.52050  0.20240  0.99300  1.0000
  C   C31       1.0  0.47950  0.20240  0.50700  1.0000
  C   C32       1.0  0.02050  0.29760  0.00700  1.0000
  H   H17       1.0  0.03680  0.69850  0.54250  1.0000
  H   H18       1.0  0.46320  0.80150  0.04250  1.0000
  H   H19       1.0  0.53680  0.80150  0.45750  1.0000
  H   H20       1.0  0.96320  0.69850  0.95750  1.0000
  H   H21       1.0  0.96320  0.30150  0.45750  1.0000
  H   H22       1.0  0.53680  0.19850  0.95750  1.0000
  H   H23       1.0  0.46320  0.19850  0.54250  1.0000
  H   H24       1.0  0.03680  0.30150  0.04250  1.0000
  C   C33       1.0  0.11630  0.96400  0.44850  1.0000
  C   C34       1.0  0.38370  0.53600  0.94850  1.0000
  C   C35       1.0  0.61630  0.53600  0.55150  1.0000
  C   C36       1.0  0.88370  0.96400  0.05150  1.0000
  C   C37       1.0  0.88370  0.03600  0.55150  1.0000
  C   C38       1.0  0.61630  0.46400  0.05150  1.0000
  C   C39       1.0  0.38370  0.46400  0.44850  1.0000
  C   C40       1.0  0.11630  0.03600  0.94850  1.0000
  H   H25       1.0  0.08660  0.00760  0.44990  1.0000
  H   H26       1.0  0.41340  0.49240  0.94990  1.0000
  H   H27       1.0  0.58660  0.49240  0.55010  1.0000
  H   H28       1.0  0.91340  0.00760  0.05010  1.0000
  H   H29       1.0  0.91340  0.99240  0.55010  1.0000
  H   H30       1.0  0.58660  0.50760  0.05010  1.0000
  H   H31       1.0  0.41340  0.50760  0.44990  1.0000
  H   H32       1.0  0.08660  0.99240  0.94990  1.0000
  C   C41       1.0  0.37890  0.95410  0.44770  1.0000
  C   C42       1.0  0.12110  0.54590  0.94770  1.0000
  C   C43       1.0  0.87890  0.54590  0.55230  1.0000
  C   C44       1.0  0.62110  0.95410  0.05230  1.0000
  C   C45       1.0  0.62110  0.04590  0.55230  1.0000
  C   C46       1.0  0.87890  0.45410  0.05230  1.0000
  C   C47       1.0  0.12110  0.45410  0.44770  1.0000
  C   C48       1.0  0.37890  0.04590  0.94770  1.0000
  H   H33       1.0  0.39720  0.90750  0.42880  1.0000
  H   H34       1.0  0.10280  0.59250  0.92880  1.0000
  H   H35       1.0  0.89720  0.59250  0.57120  1.0000
  H   H36       1.0  0.60280  0.90750  0.07120  1.0000
  H   H37       1.0  0.60280  0.09250  0.57120  1.0000
  H   H38       1.0  0.89720  0.40750  0.07120  1.0000
  H   H39       1.0  0.10280  0.40750  0.42880  1.0000
  H   H40       1.0  0.39720  0.09250  0.92880  1.0000
  C   C49       1.0  0.04330  0.86120  0.49480  1.0000
  C   C50       1.0  0.45670  0.63880  0.99480  1.0000
  C   C51       1.0  0.54330  0.63880  0.50520  1.0000
  C   C52       1.0  0.95670  0.86120  0.00520  1.0000
  C   C53       1.0  0.95670  0.13880  0.50520  1.0000
  C   C54       1.0  0.54330  0.36120  0.00520  1.0000
  C   C55       1.0  0.45670  0.36120  0.49480  1.0000
  C   C56       1.0  0.04330  0.13880  0.99480  1.0000
  H   H41       1.0  0.04790  0.85960  0.53480  1.0000
  H   H42       1.0  0.45210  0.64040  0.03480  1.0000
  H   H43       1.0  0.54790  0.64040  0.46520  1.0000
  H   H44       1.0  0.95210  0.85960  0.96520  1.0000
  H   H45       1.0  0.95210  0.14040  0.46520  1.0000
  H   H46       1.0  0.54790  0.35960  0.96520  1.0000
  H   H47       1.0  0.45210  0.35960  0.53480  1.0000
  H   H48       1.0  0.04790  0.14040  0.03480  1.0000
  H   H49       1.0  0.01520  0.90870  0.48600  1.0000
  H   H50       1.0  0.48480  0.59130  0.98600  1.0000
  H   H51       1.0  0.51520  0.59130  0.51400  1.0000
  H   H52       1.0  0.98480  0.90870  0.01400  1.0000
  H   H53       1.0  0.98480  0.09130  0.51400  1.0000
  H   H54       1.0  0.51520  0.40870  0.01400  1.0000
  H   H55       1.0  0.48480  0.40870  0.48600  1.0000
  H   H56       1.0  0.01520  0.09130  0.98600  1.0000
  C   C57       1.0  0.21740  0.92100  0.42270  1.0000
  C   C58       1.0  0.28260  0.57900  0.92270  1.0000
  C   C59       1.0  0.71740  0.57900  0.57730  1.0000
  C   C60       1.0  0.78260  0.92100  0.07730  1.0000
  C   C61       1.0  0.78260  0.07900  0.57730  1.0000
  C   C62       1.0  0.71740  0.42100  0.07730  1.0000
  C   C63       1.0  0.28260  0.42100  0.42270  1.0000
  C   C64       1.0  0.21740  0.07900  0.92270  1.0000
  C   C65       1.0  0.97720  0.66960  0.42960  1.0000
  C   C66       1.0  0.52280  0.83040  0.92960  1.0000
  C   C67       1.0  0.47720  0.83040  0.57040  1.0000
  C   C68       1.0  0.02280  0.66960  0.07040  1.0000
  C   C69       1.0  0.02280  0.33040  0.57040  1.0000
  C   C70       1.0  0.47720  0.16960  0.07040  1.0000
  C   C71       1.0  0.52280  0.16960  0.42960  1.0000
  C   C72       1.0  0.97720  0.33040  0.92960  1.0000
  H   H57       1.0  0.95880  0.63720  0.40150  1.0000
  H   H58       1.0  0.54120  0.86280  0.90150  1.0000
  H   H59       1.0  0.45880  0.86280  0.59850  1.0000
  H   H60       1.0  0.04120  0.63720  0.09850  1.0000
  H   H61       1.0  0.04120  0.36280  0.59850  1.0000
  H   H62       1.0  0.45880  0.13720  0.09850  1.0000
  H   H63       1.0  0.54120  0.13720  0.40150  1.0000
  H   H64       1.0  0.95880  0.36280  0.90150  1.0000
  C   C73       1.0  0.14910  0.81700  0.46650  1.0000
  C   C74       1.0  0.35090  0.68300  0.96650  1.0000
  C   C75       1.0  0.64910  0.68300  0.53350  1.0000
  C   C76       1.0  0.85090  0.81700  0.03350  1.0000
  C   C77       1.0  0.85090  0.18300  0.53350  1.0000
  C   C78       1.0  0.64910  0.31700  0.03350  1.0000
  C   C79       1.0  0.35090  0.31700  0.46650  1.0000
  C   C80       1.0  0.14910  0.18300  0.96650  1.0000
  H   H65       1.0  0.14150  0.76030  0.48050  1.0000
  H   H66       1.0  0.35850  0.73970  0.98050  1.0000
  H   H67       1.0  0.64150  0.73970  0.51950  1.0000
  H   H68       1.0  0.85850  0.76030  0.01950  1.0000
  H   H69       1.0  0.85850  0.23970  0.51950  1.0000
  H   H70       1.0  0.64150  0.26030  0.01950  1.0000
  H   H71       1.0  0.35850  0.26030  0.48050  1.0000
  H   H72       1.0  0.14150  0.23970  0.98050  1.0000
  C   C81       1.0  0.20500  0.83630  0.44330  1.0000
  C   C82       1.0  0.29500  0.66370  0.94330  1.0000
  C   C83       1.0  0.70500  0.66370  0.55670  1.0000
  C   C84       1.0  0.79500  0.83630  0.05670  1.0000
  C   C85       1.0  0.79500  0.16370  0.55670  1.0000
  C   C86       1.0  0.70500  0.33630  0.05670  1.0000
  C   C87       1.0  0.29500  0.33630  0.44330  1.0000
  C   C88       1.0  0.20500  0.16370  0.94330  1.0000
  H   H73       1.0  0.23460  0.79250  0.44140  1.0000
  H   H74       1.0  0.26540  0.70750  0.94140  1.0000
  H   H75       1.0  0.73460  0.70750  0.55860  1.0000
  H   H76       1.0  0.76540  0.79250  0.05860  1.0000
  H   H77       1.0  0.76540  0.20750  0.55860  1.0000
  H   H78       1.0  0.73460  0.29250  0.05860  1.0000
  H   H79       1.0  0.26540  0.29250  0.44140  1.0000
  H   H80       1.0  0.23460  0.20750  0.94140  1.0000
  C   C89       1.0  0.27940  0.94300  0.39820  1.0000
  C   C90       1.0  0.22060  0.55700  0.89820  1.0000
  C   C91       1.0  0.77940  0.55700  0.60180  1.0000
  C   C92       1.0  0.72060  0.94300  0.10180  1.0000
  C   C93       1.0  0.72060  0.05700  0.60180  1.0000
  C   C94       1.0  0.77940  0.44300  0.10180  1.0000
  C   C95       1.0  0.22060  0.44300  0.39820  1.0000
  C   C96       1.0  0.27940  0.05700  0.89820  1.0000
  H   H81       1.0  0.29720  0.88880  0.38330  1.0000
  H   H82       1.0  0.20280  0.61120  0.88330  1.0000
  H   H83       1.0  0.79720  0.61120  0.61670  1.0000
  H   H84       1.0  0.70280  0.88880  0.11670  1.0000
  H   H85       1.0  0.70280  0.11120  0.61670  1.0000
  H   H86       1.0  0.79720  0.38880  0.11670  1.0000
  H   H87       1.0  0.20280  0.38880  0.38330  1.0000
  H   H88       1.0  0.29720  0.11120  0.88330  1.0000
  H   H89       1.0  0.27450  0.98430  0.36790  1.0000
  H   H90       1.0  0.22550  0.51570  0.86790  1.0000
  H   H91       1.0  0.77450  0.51570  0.63210  1.0000
  H   H92       1.0  0.72550  0.98430  0.13210  1.0000
  H   H93       1.0  0.72550  0.01570  0.63210  1.0000
  H   H94       1.0  0.77450  0.48430  0.13210  1.0000
  H   H95       1.0  0.22550  0.48430  0.36790  1.0000
  H   H96       1.0  0.27450  0.01570  0.86790  1.0000
  C   C97       1.0  0.31190  0.05300  0.47550  1.0000
  C   C98       1.0  0.18810  0.44700  0.97550  1.0000
  C   C99       1.0  0.81190  0.44700  0.52450  1.0000
  C   C100      1.0  0.68810  0.05300  0.02450  1.0000
  C   C101      1.0  0.68810  0.94700  0.52450  1.0000
  C   C102      1.0  0.81190  0.55300  0.02450  1.0000
  C   C103      1.0  0.18810  0.55300  0.47550  1.0000
  C   C104      1.0  0.31190  0.94700  0.97550  1.0000
  H   H97       1.0  0.27690  0.08710  0.47940  1.0000
  H   H98       1.0  0.22310  0.41290  0.97940  1.0000
  H   H99       1.0  0.77690  0.41290  0.52060  1.0000
  H   H100      1.0  0.72310  0.08710  0.02060  1.0000
  H   H101      1.0  0.72310  0.91290  0.52060  1.0000
  H   H102      1.0  0.77690  0.58710  0.02060  1.0000
  H   H103      1.0  0.22310  0.58710  0.47940  1.0000
  H   H104      1.0  0.27690  0.91290  0.97940  1.0000
  C   C105      1.0  0.36410  0.06300  0.50270  1.0000
  C   C106      1.0  0.13590  0.43700  0.00270  1.0000
  C   C107      1.0  0.86410  0.43700  0.49730  1.0000
  C   C108      1.0  0.63590  0.06300  0.99730  1.0000
  C   C109      1.0  0.63590  0.93700  0.49730  1.0000
  C   C110      1.0  0.86410  0.56300  0.99730  1.0000
  C   C111      1.0  0.13590  0.56300  0.50270  1.0000
  C   C112      1.0  0.36410  0.93700  0.00270  1.0000
  H   H105      1.0  0.37060  0.10610  0.52980  1.0000
  H   H106      1.0  0.12940  0.39390  0.02980  1.0000
  H   H107      1.0  0.87060  0.39390  0.47020  1.0000
  H   H108      1.0  0.62940  0.10610  0.97020  1.0000
  H   H109      1.0  0.62940  0.89390  0.47020  1.0000
  H   H110      1.0  0.87060  0.60610  0.97020  1.0000
  H   H111      1.0  0.12940  0.60610  0.52980  1.0000
  H   H112      1.0  0.37060  0.89390  0.02980  1.0000
