data_image0
_chemical_formula_structural       Fe4Cl4O24C36H16
_chemical_formula_sum              "Fe4 Cl4 O24 C36 H16"
_cell_length_a       9.7827
_cell_length_b       18.926
_cell_length_c       9.8318
_cell_angle_alpha    90
_cell_angle_beta     116.249
_cell_angle_gamma    90

_space_group_name_H-M_alt    "P 1"
_space_group_IT_number       1

loop_
  _space_group_symop_operation_xyz
  'x, y, z'

loop_
  _atom_site_type_symbol
  _atom_site_label
  _atom_site_symmetry_multiplicity
  _atom_site_fract_x
  _atom_site_fract_y
  _atom_site_fract_z
  _atom_site_occupancy
  Fe  Fe1       1.0  0.02081  0.08194  0.34939  1.0000
  Fe  Fe2       1.0  0.47919  0.58194  0.15061  1.0000
  Fe  Fe3       1.0  0.97919  0.91806  0.65061  1.0000
  Fe  Fe4       1.0  0.52081  0.41806  0.84939  1.0000
  Cl  Cl1       1.0  0.14677  0.09020  0.20121  1.0000
  Cl  Cl2       1.0  0.35323  0.59020  0.29879  1.0000
  Cl  Cl3       1.0  0.85323  0.90980  0.79879  1.0000
  Cl  Cl4       1.0  0.64677  0.40980  0.70121  1.0000
  O   O1        1.0  0.99103  0.17660  0.41474  1.0000
  O   O2        1.0  0.50897  0.67660  0.08526  1.0000
  O   O3        1.0  0.00897  0.82340  0.58526  1.0000
  O   O4        1.0  0.49103  0.32340  0.91474  1.0000
  O   O5        1.0  0.85433  0.20395  0.17224  1.0000
  O   O6        1.0  0.64567  0.70395  0.32776  1.0000
  O   O7        1.0  0.14567  0.79605  0.82776  1.0000
  O   O8        1.0  0.35433  0.29605  0.67224  1.0000
  O   O9        1.0  0.65370  0.45607  0.05531  1.0000
  O   O10       1.0  0.84630  0.95607  0.44469  1.0000
  O   O11       1.0  0.34630  0.54393  0.94469  1.0000
  O   O12       1.0  0.15370  0.04393  0.55531  1.0000
  O   O13       1.0  0.06470  0.33754  0.81647  1.0000
  O   O14       1.0  0.43530  0.83754  0.68353  1.0000
  O   O15       1.0  0.93530  0.66246  0.18353  1.0000
  O   O16       1.0  0.56470  0.16246  0.31647  1.0000
  O   O17       1.0  0.64492  0.51355  0.24850  1.0000
  O   O18       1.0  0.85508  0.01355  0.25150  1.0000
  O   O19       1.0  0.35508  0.48645  0.75150  1.0000
  O   O20       1.0  0.14492  0.98645  0.74850  1.0000
  O   O21       1.0  0.03168  0.45361  0.77326  1.0000
  O   O22       1.0  0.46832  0.95361  0.72674  1.0000
  O   O23       1.0  0.96832  0.54639  0.22674  1.0000
  O   O24       1.0  0.53168  0.04639  0.27326  1.0000
  C   C1        1.0  0.91080  0.21909  0.30810  1.0000
  C   C2        1.0  0.58920  0.71909  0.19190  1.0000
  C   C3        1.0  0.08920  0.78091  0.69190  1.0000
  C   C4        1.0  0.41080  0.28091  0.80810  1.0000
  C   C5        1.0  0.89100  0.29142  0.35940  1.0000
  C   C6        1.0  0.60900  0.79142  0.14060  1.0000
  C   C7        1.0  0.10900  0.70858  0.64060  1.0000
  C   C8        1.0  0.39100  0.20858  0.85940  1.0000
  C   C9        1.0  0.96180  0.30810  0.51340  1.0000
  C   C10       1.0  0.53820  0.80810  0.98660  1.0000
  C   C11       1.0  0.03820  0.69190  0.48660  1.0000
  C   C12       1.0  0.46180  0.19190  0.01340  1.0000
  C   C13       1.0  0.94680  0.37508  0.56270  1.0000
  C   C14       1.0  0.55320  0.87508  0.93730  1.0000
  C   C15       1.0  0.05320  0.62492  0.43730  1.0000
  C   C16       1.0  0.44680  0.12492  0.06270  1.0000
  C   C17       1.0  0.86130  0.42564  0.45780  1.0000
  C   C18       1.0  0.63870  0.92564  0.04220  1.0000
  C   C19       1.0  0.13870  0.57436  0.54220  1.0000
  C   C20       1.0  0.36130  0.07436  0.95780  1.0000
  C   C21       1.0  0.78930  0.40957  0.30370  1.0000
  C   C22       1.0  0.71070  0.90957  0.19630  1.0000
  C   C23       1.0  0.21070  0.59043  0.69630  1.0000
  C   C24       1.0  0.28930  0.09043  0.80370  1.0000
  C   C25       1.0  0.80500  0.34242  0.25490  1.0000
  C   C26       1.0  0.69500  0.84242  0.24510  1.0000
  C   C27       1.0  0.19500  0.65758  0.74510  1.0000
  C   C28       1.0  0.30500  0.15758  0.75490  1.0000
  C   C29       1.0  0.01910  0.39387  0.72760  1.0000
  C   C30       1.0  0.48090  0.89387  0.77240  1.0000
  C   C31       1.0  0.98090  0.60613  0.27240  1.0000
  C   C32       1.0  0.51910  0.10613  0.22760  1.0000
  C   C33       1.0  0.68950  0.46361  0.19300  1.0000
  C   C34       1.0  0.81050  0.96361  0.30700  1.0000
  C   C35       1.0  0.31050  0.53639  0.80700  1.0000
  C   C36       1.0  0.18950  0.03639  0.69300  1.0000
  H   H1        1.0  0.75400  0.33140  0.15000  1.0000
  H   H2        1.0  0.74600  0.83140  0.35000  1.0000
  H   H3        1.0  0.24600  0.66860  0.85000  1.0000
  H   H4        1.0  0.25400  0.16860  0.65000  1.0000
  H   H5        1.0  0.02100  0.27410  0.58500  1.0000
  H   H6        1.0  0.47900  0.77410  0.91500  1.0000
  H   H7        1.0  0.97900  0.72590  0.41500  1.0000
  H   H8        1.0  0.52100  0.22590  0.08500  1.0000
  H   H9        1.0  0.85200  0.47180  0.49000  1.0000
  H   H10       1.0  0.64800  0.97180  0.01000  1.0000
  H   H11       1.0  0.14800  0.52820  0.51000  1.0000
  H   H12       1.0  0.35200  0.02820  0.99000  1.0000
  H   H13       1.0  0.09500  0.34990  0.90400  1.0000
  H   H14       1.0  0.40500  0.84990  0.59600  1.0000
  H   H15       1.0  0.90500  0.65010  0.09600  1.0000
  H   H16       1.0  0.59500  0.15010  0.40400  1.0000
