data_image0
_chemical_formula_structural       Mo2O6N4C2H2C4H2C2H2C6H2C2H2C4H2C4O6H2O2
_chemical_formula_sum              "Mo2 O14 N4 C24 H14"
_cell_length_a       8.4033
_cell_length_b       13.6925
_cell_length_c       7.24076
_cell_angle_alpha    90
_cell_angle_beta     100.582
_cell_angle_gamma    90

_space_group_name_H-M_alt    "P 1"
_space_group_IT_number       1

loop_
  _space_group_symop_operation_xyz
  'x, y, z'

loop_
  _atom_site_type_symbol
  _atom_site_label
  _atom_site_symmetry_multiplicity
  _atom_site_fract_x
  _atom_site_fract_y
  _atom_site_fract_z
  _atom_site_occupancy
  Mo  Mo1       1.0  0.03350  0.00170  0.83290  1.0000
  Mo  Mo2       1.0  0.03350  0.99830  0.33290  1.0000
  O   O1        1.0  0.99200  0.01630  0.08670  1.0000
  O   O2        1.0  0.99200  0.98370  0.58670  1.0000
  O   O3        1.0  0.14600  0.89860  0.88800  1.0000
  O   O4        1.0  0.14600  0.10140  0.38800  1.0000
  O   O5        1.0  0.17000  0.09090  0.84700  1.0000
  O   O6        1.0  0.17000  0.90910  0.34700  1.0000
  N   N1        1.0  0.78400  0.93430  0.80800  1.0000
  N   N2        1.0  0.78400  0.06570  0.30800  1.0000
  N   N3        1.0  0.82200  0.12500  0.78500  1.0000
  N   N4        1.0  0.82200  0.87500  0.28500  1.0000
  C   C1        1.0  0.77300  0.83600  0.80500  1.0000
  C   C2        1.0  0.77300  0.16400  0.30500  1.0000
  H   H1        1.0  0.87000  0.80100  0.82000  1.0000
  H   H2        1.0  0.87000  0.19900  0.32000  1.0000
  C   C3        1.0  0.62400  0.78580  0.77300  1.0000
  C   C4        1.0  0.62400  0.21420  0.27300  1.0000
  C   C5        1.0  0.48400  0.84300  0.73000  1.0000
  C   C6        1.0  0.48400  0.15700  0.23000  1.0000
  H   H3        1.0  0.38000  0.81200  0.70000  1.0000
  H   H4        1.0  0.38000  0.18800  0.20000  1.0000
  C   C7        1.0  0.49500  0.94400  0.72800  1.0000
  C   C8        1.0  0.49500  0.05600  0.22800  1.0000
  H   H5        1.0  0.40000  0.98200  0.70000  1.0000
  H   H6        1.0  0.40000  0.01800  0.20000  1.0000
  C   C9        1.0  0.64700  0.98800  0.76900  1.0000
  C   C10       1.0  0.64700  0.01200  0.26900  1.0000
  C   C11       1.0  0.66800  0.09600  0.76900  1.0000
  C   C12       1.0  0.66800  0.90400  0.26900  1.0000
  C   C13       1.0  0.54100  0.16200  0.76100  1.0000
  C   C14       1.0  0.54100  0.83800  0.26100  1.0000
  H   H7        1.0  0.43000  0.14100  0.76000  1.0000
  H   H8        1.0  0.43000  0.85900  0.26000  1.0000
  C   C15       1.0  0.57600  0.26100  0.76500  1.0000
  C   C16       1.0  0.57600  0.73900  0.26500  1.0000
  H   H9        1.0  0.49000  0.30800  0.76000  1.0000
  H   H10       1.0  0.49000  0.69200  0.26000  1.0000
  C   C17       1.0  0.73300  0.29340  0.77600  1.0000
  C   C18       1.0  0.73300  0.70660  0.27600  1.0000
  C   C19       1.0  0.85600  0.22200  0.78900  1.0000
  C   C20       1.0  0.85600  0.77800  0.28900  1.0000
  H   H11       1.0  0.96000  0.24100  0.80000  1.0000
  H   H12       1.0  0.96000  0.75900  0.30000  1.0000
  C   C21       1.0  0.60270  0.67830  0.76700  1.0000
  C   C22       1.0  0.60270  0.32170  0.26700  1.0000
  C   C23       1.0  0.77080  0.39800  0.75500  1.0000
  C   C24       1.0  0.77080  0.60200  0.25500  1.0000
  O   O7        1.0  0.46510  0.63460  0.72900  1.0000
  O   O8        1.0  0.46510  0.36540  0.22900  1.0000
  O   O9        1.0  0.73630  0.63330  0.81000  1.0000
  O   O10       1.0  0.73630  0.36670  0.31000  1.0000
  O   O11       1.0  0.66010  0.45760  0.77200  1.0000
  O   O12       1.0  0.66010  0.54240  0.27200  1.0000
  H   H13       1.0  0.70000  0.51700  0.79000  1.0000
  H   H14       1.0  0.70000  0.48300  0.29000  1.0000
  O   O13       1.0  0.91450  0.42290  0.74400  1.0000
  O   O14       1.0  0.91450  0.57710  0.24400  1.0000
