data_image0
_chemical_formula_structural       Mn2O16N2C6H2C4H2C4H2C8H2C4H2C2H2C2
_chemical_formula_sum              "Mn2 O16 N2 C30 H12"
_cell_length_a       7.9386
_cell_length_b       8.8178
_cell_length_c       13.1958
_cell_angle_alpha    98.607
_cell_angle_beta     106.013
_cell_angle_gamma    106.71

_space_group_name_H-M_alt    "P 1"
_space_group_IT_number       1

loop_
  _space_group_symop_operation_xyz
  'x, y, z'

loop_
  _atom_site_type_symbol
  _atom_site_label
  _atom_site_symmetry_multiplicity
  _atom_site_fract_x
  _atom_site_fract_y
  _atom_site_fract_z
  _atom_site_occupancy
  Mn  Mn1       1.0  0.20779  0.91806  0.94884  1.0000
  Mn  Mn2       1.0  0.79221  0.08194  0.05116  1.0000
  O   O1        1.0  0.98818  0.69199  0.93960  1.0000
  O   O2        1.0  0.01182  0.30801  0.06040  1.0000
  O   O3        1.0  0.06255  0.66935  0.79078  1.0000
  O   O4        1.0  0.93745  0.33065  0.20922  1.0000
  O   O5        1.0  0.57749  0.17985  0.98332  1.0000
  O   O6        1.0  0.42251  0.82015  0.01668  1.0000
  O   O7        1.0  0.32708  0.02724  0.84058  1.0000
  O   O8        1.0  0.67292  0.97276  0.15942  1.0000
  O   O9        1.0  0.19270  0.36560  0.59412  1.0000
  O   O10       1.0  0.80730  0.63440  0.40588  1.0000
  O   O11       1.0  0.96010  0.15820  0.48470  1.0000
  O   O12       1.0  0.03990  0.84180  0.51530  1.0000
  O   O13       1.0  0.01269  0.99269  0.12461  1.0000
  O   O14       1.0  0.98731  0.00731  0.87539  1.0000
  O   O15       1.0  0.29568  0.07094  0.10928  1.0000
  O   O16       1.0  0.70432  0.92906  0.89072  1.0000
  N   N1        1.0  0.12450  0.24520  0.51750  1.0000
  N   N2        1.0  0.87550  0.75480  0.48250  1.0000
  C   C1        1.0  0.95890  0.61770  0.84340  1.0000
  C   C2        1.0  0.04110  0.38230  0.15660  1.0000
  C   C3        1.0  0.78830  0.46660  0.79177  1.0000
  C   C4        1.0  0.21170  0.53340  0.20823  1.0000
  C   C5        1.0  0.71790  0.37440  0.85705  1.0000
  C   C6        1.0  0.28210  0.62560  0.14295  1.0000
  H   H1        1.0  0.78090  0.40260  0.93170  1.0000
  H   H2        1.0  0.21910  0.59740  0.06830  1.0000
  C   C7        1.0  0.55350  0.24002  0.81136  1.0000
  C   C8        1.0  0.44650  0.75998  0.18864  1.0000
  C   C9        1.0  0.45720  0.20040  0.69999  1.0000
  C   C10       1.0  0.54280  0.79960  0.30001  1.0000
  H   H3        1.0  0.34470  0.11320  0.66980  1.0000
  H   H4        1.0  0.65530  0.88680  0.33020  1.0000
  C   C11       1.0  0.52810  0.29050  0.63356  1.0000
  C   C12       1.0  0.47190  0.70950  0.36644  1.0000
  C   C13       1.0  0.69600  0.42260  0.67989  1.0000
  C   C14       1.0  0.30400  0.57740  0.32011  1.0000
  H   H5        1.0  0.74630  0.48120  0.63580  1.0000
  H   H6        1.0  0.25370  0.51880  0.36420  1.0000
  C   C15       1.0  0.48120  0.14120  0.88332  1.0000
  C   C16       1.0  0.51880  0.85880  0.11668  1.0000
  C   C17       1.0  0.43590  0.24100  0.51351  1.0000
  C   C18       1.0  0.56410  0.75900  0.48649  1.0000
  C   C19       1.0  0.24570  0.20600  0.45873  1.0000
  C   C20       1.0  0.75430  0.79400  0.54127  1.0000
  C   C21       1.0  0.16280  0.14340  0.34725  1.0000
  C   C22       1.0  0.83720  0.85660  0.65275  1.0000
  H   H7        1.0  0.03470  0.11590  0.31430  1.0000
  H   H8        1.0  0.96530  0.88410  0.68570  1.0000
  C   C23       1.0  0.27410  0.12240  0.28527  1.0000
  C   C24       1.0  0.72590  0.87760  0.71473  1.0000
  C   C25       1.0  0.46510  0.16140  0.33662  1.0000
  C   C26       1.0  0.53490  0.83860  0.66338  1.0000
  H   H9        1.0  0.54070  0.15060  0.29530  1.0000
  H   H10       1.0  0.45930  0.84940  0.70470  1.0000
  C   C27       1.0  0.54300  0.21620  0.44884  1.0000
  C   C28       1.0  0.45700  0.78380  0.55116  1.0000
  H   H11       1.0  0.66980  0.23710  0.48200  1.0000
  H   H12       1.0  0.33020  0.76290  0.51800  1.0000
  C   C29       1.0  0.18650  0.05750  0.16372  1.0000
  C   C30       1.0  0.81350  0.94250  0.83628  1.0000
