data_image0
_chemical_formula_structural       Ag2C4H6C4H6C4H6C4H6C4N4O16Rh4
_chemical_formula_sum              "Ag2 C20 H24 N4 O16 Rh4"
_cell_length_a       13.118
_cell_length_b       13.6197
_cell_length_c       13.6949
_cell_angle_alpha    87.033
_cell_angle_beta     78.278
_cell_angle_gamma    79.928

_space_group_name_H-M_alt    "P 1"
_space_group_IT_number       1

loop_
  _space_group_symop_operation_xyz
  'x, y, z'

loop_
  _atom_site_type_symbol
  _atom_site_label
  _atom_site_symmetry_multiplicity
  _atom_site_fract_x
  _atom_site_fract_y
  _atom_site_fract_z
  _atom_site_occupancy
  Ag  Ag1       1.0  0.59794  0.67069  0.71863  1.0000
  Ag  Ag2       1.0  0.40206  0.32931  0.28137  1.0000
  C   C1        1.0  0.14620  0.56480  0.55760  1.0000
  C   C2        1.0  0.85380  0.43520  0.44240  1.0000
  C   C3        1.0  0.17750  0.50890  0.46160  1.0000
  C   C4        1.0  0.82250  0.49110  0.53840  1.0000
  H   H1        1.0  0.14690  0.44910  0.46920  1.0000
  H   H2        1.0  0.85310  0.55090  0.53080  1.0000
  H   H3        1.0  0.25300  0.49170  0.44470  1.0000
  H   H4        1.0  0.74700  0.50830  0.55530  1.0000
  H   H5        1.0  0.15250  0.55000  0.40940  1.0000
  H   H6        1.0  0.84750  0.45000  0.59060  1.0000
  C   C5        1.0  0.04720  0.76890  0.88540  1.0000
  C   C6        1.0  0.95280  0.23110  0.11460  1.0000
  C   C7        1.0  0.01790  0.82740  0.98080  1.0000
  C   C8        1.0  0.98210  0.17260  0.01920  1.0000
  H   H7        1.0  0.03860  0.89180  0.96810  1.0000
  H   H8        1.0  0.96140  0.10820  0.03190  1.0000
  H   H9        1.0  0.05370  0.79220  0.03010  1.0000
  H   H10       1.0  0.94630  0.20780  0.96990  1.0000
  H   H11       1.0  0.94300  0.83530  0.00490  1.0000
  H   H12       1.0  0.05700  0.16470  0.99510  1.0000
  C   C9        1.0  0.11520  0.83050  0.61740  1.0000
  C   C10       1.0  0.88480  0.16950  0.38260  1.0000
  C   C11       1.0  0.12550  0.92500  0.55810  1.0000
  C   C12       1.0  0.87450  0.07500  0.44190  1.0000
  H   H13       1.0  0.19000  0.94630  0.56370  1.0000
  H   H14       1.0  0.81000  0.05370  0.43630  1.0000
  H   H15       1.0  0.06670  0.97580  0.58330  1.0000
  H   H16       1.0  0.93330  0.02420  0.41670  1.0000
  H   H17       1.0  0.12630  0.91350  0.48940  1.0000
  H   H18       1.0  0.87370  0.08650  0.51060  1.0000
  C   C13       1.0  0.08330  0.49880  0.82450  1.0000
  C   C14       1.0  0.91670  0.50120  0.17550  1.0000
  C   C15       1.0  0.07600  0.40080  0.88080  1.0000
  C   C16       1.0  0.92400  0.59920  0.11920  1.0000
  H   H19       1.0  0.14260  0.35690  0.86470  1.0000
  H   H20       1.0  0.85740  0.64310  0.13530  1.0000
  H   H21       1.0  0.02190  0.37080  0.86220  1.0000
  H   H22       1.0  0.97810  0.62920  0.13780  1.0000
  H   H23       1.0  0.05900  0.41270  0.95120  1.0000
  H   H24       1.0  0.94100  0.58730  0.04880  1.0000
  C   C17       1.0  0.75250  0.68940  0.70680  1.0000
  C   C18       1.0  0.24750  0.31060  0.29320  1.0000
  C   C19       1.0  0.44430  0.64840  0.72960  1.0000
  C   C20       1.0  0.55570  0.35160  0.27040  1.0000
  N   N1        1.0  0.83720  0.69220  0.70640  1.0000
  N   N2        1.0  0.16280  0.30780  0.29360  1.0000
  N   N3        1.0  0.35990  0.64260  0.73260  1.0000
  N   N4        1.0  0.64010  0.35740  0.26740  1.0000
  O   O1        1.0  0.04950  0.59500  0.59030  1.0000
  O   O2        1.0  0.95050  0.40500  0.40970  1.0000
  O   O3        1.0  0.22170  0.57870  0.59780  1.0000
  O   O4        1.0  0.77830  0.42130  0.40220  1.0000
  O   O5        1.0  0.14430  0.73590  0.85530  1.0000
  O   O6        1.0  0.85570  0.26410  0.14470  1.0000
  O   O7        1.0  0.97180  0.75610  0.84540  1.0000
  O   O8        1.0  0.02820  0.24390  0.15460  1.0000
  O   O9        1.0  0.19710  0.78520  0.64550  1.0000
  O   O10       1.0  0.80290  0.21480  0.35450  1.0000
  O   O11       1.0  0.02620  0.80290  0.63400  1.0000
  O   O12       1.0  0.97380  0.19710  0.36600  1.0000
  O   O13       1.0  0.99980  0.54610  0.80060  1.0000
  O   O14       1.0  0.00020  0.45390  0.19940  1.0000
  O   O15       1.0  0.17210  0.52670  0.80660  1.0000
  O   O16       1.0  0.82790  0.47330  0.19340  1.0000
  Rh  Rh1       1.0  0.00609  0.67552  0.71744  1.0000
  Rh  Rh2       1.0  0.99391  0.32448  0.28256  1.0000
  Rh  Rh3       1.0  0.18953  0.65580  0.72692  1.0000
  Rh  Rh4       1.0  0.81047  0.34420  0.27308  1.0000
