data_image0
_chemical_formula_structural       Ag4C16H12C8H12C8H12C8H12N8O32Rh8
_chemical_formula_sum              "Ag4 C40 H48 N8 O32 Rh8"
_cell_length_a       11.7168
_cell_length_b       26.3945
_cell_length_c       11.729
_cell_angle_alpha    90
_cell_angle_beta     93.595
_cell_angle_gamma    90

_space_group_name_H-M_alt    "P 1"
_space_group_IT_number       1

loop_
  _space_group_symop_operation_xyz
  'x, y, z'

loop_
  _atom_site_type_symbol
  _atom_site_label
  _atom_site_symmetry_multiplicity
  _atom_site_fract_x
  _atom_site_fract_y
  _atom_site_fract_z
  _atom_site_occupancy
  Ag  Ag1       1.0  0.74409  0.77894  0.23346  1.0000
  Ag  Ag2       1.0  0.75591  0.27894  0.26654  1.0000
  Ag  Ag3       1.0  0.25591  0.22106  0.76654  1.0000
  Ag  Ag4       1.0  0.24409  0.72106  0.73346  1.0000
  C   C1        1.0  0.74770  0.85470  0.22130  1.0000
  C   C2        1.0  0.75230  0.35470  0.27870  1.0000
  C   C3        1.0  0.25230  0.14530  0.77870  1.0000
  C   C4        1.0  0.24770  0.64530  0.72130  1.0000
  C   C5        1.0  0.74560  0.70190  0.24430  1.0000
  C   C6        1.0  0.75440  0.20190  0.25570  1.0000
  C   C7        1.0  0.25440  0.29810  0.75570  1.0000
  C   C8        1.0  0.24560  0.79810  0.74430  1.0000
  C   C9        1.0  0.67780  0.02660  0.44740  1.0000
  C   C10       1.0  0.82220  0.52660  0.05260  1.0000
  C   C11       1.0  0.32220  0.97340  0.55260  1.0000
  C   C12       1.0  0.17780  0.47340  0.94740  1.0000
  C   C13       1.0  0.63620  0.02510  0.56610  1.0000
  C   C14       1.0  0.86380  0.52510  0.93390  1.0000
  C   C15       1.0  0.36380  0.97490  0.43390  1.0000
  C   C16       1.0  0.13620  0.47490  0.06610  1.0000
  H   H1        1.0  0.68410  0.04620  0.61550  1.0000
  H   H2        1.0  0.81590  0.54620  0.88450  1.0000
  H   H3        1.0  0.31590  0.95380  0.38450  1.0000
  H   H4        1.0  0.18410  0.45380  0.11550  1.0000
  H   H5        1.0  0.63930  0.99090  0.59400  1.0000
  H   H6        1.0  0.86070  0.49090  0.90600  1.0000
  H   H7        1.0  0.36070  0.00910  0.40600  1.0000
  H   H8        1.0  0.13930  0.50910  0.09400  1.0000
  H   H9        1.0  0.55890  0.03710  0.56450  1.0000
  H   H10       1.0  0.94110  0.53710  0.93550  1.0000
  H   H11       1.0  0.44110  0.96290  0.43550  1.0000
  H   H12       1.0  0.05890  0.46290  0.06450  1.0000
  C   C17       1.0  0.82140  0.03160  0.03490  1.0000
  C   C18       1.0  0.67860  0.53160  0.46510  1.0000
  C   C19       1.0  0.17860  0.96840  0.96510  1.0000
  C   C20       1.0  0.32140  0.46840  0.53490  1.0000
  C   C21       1.0  0.87020  0.03390  0.91800  1.0000
  C   C22       1.0  0.62980  0.53390  0.58200  1.0000
  C   C23       1.0  0.12980  0.96610  0.08200  1.0000
  C   C24       1.0  0.37020  0.46610  0.41800  1.0000
  H   H13       1.0  0.95140  0.03880  0.92690  1.0000
  H   H14       1.0  0.54860  0.53880  0.57310  1.0000
  H   H15       1.0  0.04860  0.96120  0.07310  1.0000
  H   H16       1.0  0.45140  0.46120  0.42690  1.0000
  H   H17       1.0  0.83590  0.06150  0.87520  1.0000
  H   H18       1.0  0.66410  0.56150  0.62480  1.0000
  H   H19       1.0  0.16410  0.93850  0.12480  1.0000
  H   H20       1.0  0.33590  0.43850  0.37520  1.0000
  H   H21       1.0  0.85400  0.00270  0.87800  1.0000
  H   H22       1.0  0.64600  0.50270  0.62200  1.0000
  H   H23       1.0  0.14600  0.99730  0.12200  1.0000
  H   H24       1.0  0.35400  0.49730  0.37800  1.0000
  C   C25       1.0  0.96040  0.02940  0.32400  1.0000
  C   C26       1.0  0.53960  0.52940  0.17600  1.0000
  C   C27       1.0  0.03960  0.97060  0.67600  1.0000
  C   C28       1.0  0.46040  0.47060  0.82400  1.0000
  C   C29       1.0  0.08110  0.02980  0.37330  1.0000
  C   C30       1.0  0.41890  0.52980  0.12670  1.0000
  C   C31       1.0  0.91890  0.97020  0.62670  1.0000
  C   C32       1.0  0.58110  0.47020  0.87330  1.0000
  H   H25       1.0  0.12470  0.05390  0.33290  1.0000
  H   H26       1.0  0.37530  0.55390  0.16710  1.0000
  H   H27       1.0  0.87530  0.94610  0.66710  1.0000
  H   H28       1.0  0.62470  0.44610  0.83290  1.0000
  H   H29       1.0  0.11380  0.99660  0.36600  1.0000
  H   H30       1.0  0.38620  0.49660  0.13400  1.0000
  H   H31       1.0  0.88620  0.00340  0.63400  1.0000
  H   H32       1.0  0.61380  0.50340  0.86600  1.0000
  H   H33       1.0  0.08250  0.03890  0.45250  1.0000
  H   H34       1.0  0.41750  0.53890  0.04750  1.0000
  H   H35       1.0  0.91750  0.96110  0.54750  1.0000
  H   H36       1.0  0.58250  0.46110  0.95250  1.0000
  C   C33       1.0  0.53560  0.02760  0.16440  1.0000
  C   C34       1.0  0.96440  0.52760  0.33560  1.0000
  C   C35       1.0  0.46440  0.97240  0.83560  1.0000
  C   C36       1.0  0.03560  0.47240  0.66440  1.0000
  C   C37       1.0  0.41140  0.02610  0.12480  1.0000
  C   C38       1.0  0.08860  0.52610  0.37520  1.0000
  C   C39       1.0  0.58860  0.97390  0.87520  1.0000
  C   C40       1.0  0.91140  0.47390  0.62480  1.0000
  H   H37       1.0  0.36780  0.04460  0.17760  1.0000
  H   H38       1.0  0.13220  0.54460  0.32240  1.0000
  H   H39       1.0  0.63220  0.95540  0.82240  1.0000
  H   H40       1.0  0.86780  0.45540  0.67760  1.0000
  H   H41       1.0  0.38580  0.99160  0.12100  1.0000
  H   H42       1.0  0.11420  0.49160  0.37900  1.0000
  H   H43       1.0  0.61420  0.00840  0.87900  1.0000
  H   H44       1.0  0.88580  0.50840  0.62100  1.0000
  H   H45       1.0  0.40130  0.04130  0.05040  1.0000
  H   H46       1.0  0.09870  0.54130  0.44960  1.0000
  H   H47       1.0  0.59870  0.95870  0.94960  1.0000
  H   H48       1.0  0.90130  0.45870  0.55040  1.0000
  N   N1        1.0  0.75150  0.90000  0.22770  1.0000
  N   N2        1.0  0.74850  0.40000  0.27230  1.0000
  N   N3        1.0  0.24850  0.10000  0.77230  1.0000
  N   N4        1.0  0.25150  0.60000  0.72770  1.0000
  N   N5        1.0  0.74970  0.65880  0.25300  1.0000
  N   N6        1.0  0.75030  0.15880  0.24700  1.0000
  N   N7        1.0  0.25030  0.34120  0.74700  1.0000
  N   N8        1.0  0.24970  0.84120  0.75300  1.0000
  O   O1        1.0  0.69290  0.06940  0.40400  1.0000
  O   O2        1.0  0.80710  0.56940  0.09600  1.0000
  O   O3        1.0  0.30710  0.93060  0.59600  1.0000
  O   O4        1.0  0.19290  0.43060  0.90400  1.0000
  O   O5        1.0  0.69440  0.98400  0.39990  1.0000
  O   O6        1.0  0.80560  0.48400  0.10010  1.0000
  O   O7        1.0  0.30560  0.01600  0.60010  1.0000
  O   O8        1.0  0.19440  0.51600  0.89990  1.0000
  O   O9        1.0  0.80840  0.98820  0.07780  1.0000
  O   O10       1.0  0.69160  0.48820  0.42220  1.0000
  O   O11       1.0  0.19160  0.01180  0.92220  1.0000
  O   O12       1.0  0.30840  0.51180  0.57780  1.0000
  O   O13       1.0  0.79950  0.07370  0.08050  1.0000
  O   O14       1.0  0.70050  0.57370  0.41950  1.0000
  O   O15       1.0  0.20050  0.92630  0.91950  1.0000
  O   O16       1.0  0.29950  0.42630  0.58050  1.0000
  O   O17       1.0  0.91320  0.07210  0.30470  1.0000
  O   O18       1.0  0.58680  0.57210  0.19530  1.0000
  O   O19       1.0  0.08680  0.92790  0.69530  1.0000
  O   O20       1.0  0.41320  0.42790  0.80470  1.0000
  O   O21       1.0  0.91500  0.98620  0.30380  1.0000
  O   O22       1.0  0.58500  0.48620  0.19620  1.0000
  O   O23       1.0  0.08500  0.01380  0.69620  1.0000
  O   O24       1.0  0.41500  0.51380  0.80380  1.0000
  O   O25       1.0  0.57920  0.07050  0.18250  1.0000
  O   O26       1.0  0.92080  0.57050  0.31750  1.0000
  O   O27       1.0  0.42080  0.92950  0.81750  1.0000
  O   O28       1.0  0.07920  0.42950  0.68250  1.0000
  O   O29       1.0  0.58420  0.98510  0.17650  1.0000
  O   O30       1.0  0.91580  0.48510  0.32350  1.0000
  O   O31       1.0  0.41580  0.01490  0.82350  1.0000
  O   O32       1.0  0.08420  0.51490  0.67650  1.0000
  Rh  Rh1       1.0  0.74688  0.07431  0.24305  1.0000
  Rh  Rh2       1.0  0.75312  0.57431  0.25695  1.0000
  Rh  Rh3       1.0  0.25312  0.92569  0.75695  1.0000
  Rh  Rh4       1.0  0.24688  0.42569  0.74305  1.0000
  Rh  Rh5       1.0  0.75010  0.98320  0.23866  1.0000
  Rh  Rh6       1.0  0.74990  0.48320  0.26134  1.0000
  Rh  Rh7       1.0  0.24990  0.01680  0.76134  1.0000
  Rh  Rh8       1.0  0.25010  0.51680  0.73866  1.0000
