data_image0
_chemical_formula_structural       Ag4Rh8O48N8C16H8C4H8C4H12C8H8C4H8C4H12C8H8C4H8C4H12C8H8C4H8C4H12
_chemical_formula_sum              "Ag4 Rh8 O48 N8 C72 H112"
_cell_length_a       13.1982
_cell_length_b       22.201
_cell_length_c       16.909
_cell_angle_alpha    90
_cell_angle_beta     111.788
_cell_angle_gamma    90

_space_group_name_H-M_alt    "P 1"
_space_group_IT_number       1

loop_
  _space_group_symop_operation_xyz
  'x, y, z'

loop_
  _atom_site_type_symbol
  _atom_site_label
  _atom_site_symmetry_multiplicity
  _atom_site_fract_x
  _atom_site_fract_y
  _atom_site_fract_z
  _atom_site_occupancy
  Ag  Ag1       1.0  0.50328  0.25621  0.16308  1.0000
  Ag  Ag2       1.0  0.49672  0.75621  0.33692  1.0000
  Ag  Ag3       1.0  0.49672  0.74379  0.83692  1.0000
  Ag  Ag4       1.0  0.50328  0.24379  0.66308  1.0000
  Rh  Rh1       1.0  0.90496  0.19212  0.36680  1.0000
  Rh  Rh2       1.0  0.09504  0.69212  0.13320  1.0000
  Rh  Rh3       1.0  0.09504  0.80788  0.63320  1.0000
  Rh  Rh4       1.0  0.90496  0.30788  0.86680  1.0000
  Rh  Rh5       1.0  0.09279  0.19158  0.46408  1.0000
  Rh  Rh6       1.0  0.90721  0.69158  0.03592  1.0000
  Rh  Rh7       1.0  0.90721  0.80842  0.53592  1.0000
  Rh  Rh8       1.0  0.09279  0.30842  0.96408  1.0000
  O   O1        1.0  0.87340  0.13047  0.44500  1.0000
  O   O2        1.0  0.12660  0.63047  0.05500  1.0000
  O   O3        1.0  0.12660  0.86953  0.55500  1.0000
  O   O4        1.0  0.87340  0.36953  0.94500  1.0000
  O   O5        1.0  0.05050  0.12776  0.53310  1.0000
  O   O6        1.0  0.94950  0.62776  0.96690  1.0000
  O   O7        1.0  0.94950  0.87224  0.46690  1.0000
  O   O8        1.0  0.05050  0.37224  0.03310  1.0000
  O   O9        1.0  0.94840  0.25253  0.29400  1.0000
  O   O10       1.0  0.05160  0.75253  0.20600  1.0000
  O   O11       1.0  0.05160  0.74747  0.70600  1.0000
  O   O12       1.0  0.94840  0.24747  0.79400  1.0000
  O   O13       1.0  0.12190  0.25456  0.38780  1.0000
  O   O14       1.0  0.87810  0.75456  0.11220  1.0000
  O   O15       1.0  0.87810  0.74544  0.61220  1.0000
  O   O16       1.0  0.12190  0.24544  0.88780  1.0000
  O   O17       1.0  0.94620  0.12526  0.30040  1.0000
  O   O18       1.0  0.05380  0.62526  0.19960  1.0000
  O   O19       1.0  0.05380  0.87474  0.69960  1.0000
  O   O20       1.0  0.94620  0.37474  0.80040  1.0000
  O   O21       1.0  0.12220  0.12759  0.38960  1.0000
  O   O22       1.0  0.87780  0.62759  0.11040  1.0000
  O   O23       1.0  0.87780  0.87241  0.61040  1.0000
  O   O24       1.0  0.12220  0.37241  0.88960  1.0000
  O   O25       1.0  0.87830  0.25985  0.43880  1.0000
  O   O26       1.0  0.12170  0.75985  0.06120  1.0000
  O   O27       1.0  0.12170  0.74015  0.56120  1.0000
  O   O28       1.0  0.87830  0.24015  0.93880  1.0000
  O   O29       1.0  0.05170  0.25668  0.53220  1.0000
  O   O30       1.0  0.94830  0.75668  0.96780  1.0000
  O   O31       1.0  0.94830  0.74332  0.46780  1.0000
  O   O32       1.0  0.05170  0.24332  0.03220  1.0000
  O   O33       1.0  0.82250  0.05075  0.55030  1.0000
  O   O34       1.0  0.17750  0.55075  0.94970  1.0000
  O   O35       1.0  0.17750  0.94925  0.44970  1.0000
  O   O36       1.0  0.82250  0.44925  0.05030  1.0000
  O   O37       1.0  0.18570  0.31966  0.28110  1.0000
  O   O38       1.0  0.81430  0.81966  0.21890  1.0000
  O   O39       1.0  0.81430  0.68034  0.71890  1.0000
  O   O40       1.0  0.18570  0.18034  0.78110  1.0000
  O   O41       1.0  0.99240  0.04350  0.20340  1.0000
  O   O42       1.0  0.00760  0.54350  0.29660  1.0000
  O   O43       1.0  0.00760  0.95650  0.79660  1.0000
  O   O44       1.0  0.99240  0.45650  0.70340  1.0000
  O   O45       1.0  0.82970  0.35072  0.52750  1.0000
  O   O46       1.0  0.17030  0.85072  0.97250  1.0000
  O   O47       1.0  0.17030  0.64928  0.47250  1.0000
  O   O48       1.0  0.82970  0.14928  0.02750  1.0000
  N   N1        1.0  0.73260  0.20012  0.27640  1.0000
  N   N2        1.0  0.26740  0.70012  0.22360  1.0000
  N   N3        1.0  0.26740  0.79988  0.72360  1.0000
  N   N4        1.0  0.73260  0.29988  0.77640  1.0000
  N   N5        1.0  0.26760  0.19391  0.55180  1.0000
  N   N6        1.0  0.73240  0.69391  0.94820  1.0000
  N   N7        1.0  0.73240  0.80609  0.44820  1.0000
  N   N8        1.0  0.26760  0.30609  0.05180  1.0000
  C   C1        1.0  0.65030  0.21790  0.23480  1.0000
  C   C2        1.0  0.34970  0.71790  0.26520  1.0000
  C   C3        1.0  0.34970  0.78210  0.76520  1.0000
  C   C4        1.0  0.65030  0.28210  0.73480  1.0000
  C   C5        1.0  0.35450  0.20760  0.59170  1.0000
  C   C6        1.0  0.64550  0.70760  0.90830  1.0000
  C   C7        1.0  0.64550  0.79240  0.40830  1.0000
  C   C8        1.0  0.35450  0.29240  0.09170  1.0000
  C   C9        1.0  0.95170  0.11340  0.50980  1.0000
  C   C10       1.0  0.04830  0.61340  0.99020  1.0000
  C   C11       1.0  0.04830  0.88660  0.49020  1.0000
  C   C12       1.0  0.95170  0.38660  0.00980  1.0000
  C   C13       1.0  0.93070  0.06960  0.57140  1.0000
  C   C14       1.0  0.06930  0.56960  0.92860  1.0000
  C   C15       1.0  0.06930  0.93040  0.42860  1.0000
  C   C16       1.0  0.93070  0.43040  0.07140  1.0000
  H   H1        1.0  0.97570  0.03420  0.57610  1.0000
  H   H2        1.0  0.02430  0.53420  0.92390  1.0000
  H   H3        1.0  0.02430  0.96580  0.42390  1.0000
  H   H4        1.0  0.97570  0.46580  0.07610  1.0000
  H   H5        1.0  0.95490  0.08840  0.62720  1.0000
  H   H6        1.0  0.04510  0.58840  0.87280  1.0000
  H   H7        1.0  0.04510  0.91160  0.37280  1.0000
  H   H8        1.0  0.95490  0.41160  0.12720  1.0000
  C   C17       1.0  0.79200  0.00460  0.48860  1.0000
  C   C18       1.0  0.20800  0.50460  0.01140  1.0000
  C   C19       1.0  0.20800  0.99540  0.51140  1.0000
  C   C20       1.0  0.79200  0.49540  0.98860  1.0000
  H   H9        1.0  0.84860  0.97410  0.50250  1.0000
  H   H10       1.0  0.15140  0.47410  0.99750  1.0000
  H   H11       1.0  0.15140  0.02590  0.49750  1.0000
  H   H12       1.0  0.84860  0.52590  0.00250  1.0000
  H   H13       1.0  0.78130  0.02090  0.43280  1.0000
  H   H14       1.0  0.21870  0.52090  0.06720  1.0000
  H   H15       1.0  0.21870  0.97910  0.56720  1.0000
  H   H16       1.0  0.78130  0.47910  0.93280  1.0000
  C   C21       1.0  0.68870  0.97800  0.48880  1.0000
  C   C22       1.0  0.31130  0.47800  0.01120  1.0000
  C   C23       1.0  0.31130  0.02200  0.51120  1.0000
  C   C24       1.0  0.68870  0.52200  0.98880  1.0000
  H   H17       1.0  0.70080  0.96130  0.54390  1.0000
  H   H18       1.0  0.29920  0.46130  0.95610  1.0000
  H   H19       1.0  0.29920  0.03870  0.45610  1.0000
  H   H20       1.0  0.70080  0.53870  0.04390  1.0000
  H   H21       1.0  0.66460  0.94690  0.44650  1.0000
  H   H22       1.0  0.33540  0.44690  0.05350  1.0000
  H   H23       1.0  0.33540  0.05310  0.55350  1.0000
  H   H24       1.0  0.66460  0.55310  0.94650  1.0000
  H   H25       1.0  0.63390  0.00880  0.47610  1.0000
  H   H26       1.0  0.36610  0.50880  0.02390  1.0000
  H   H27       1.0  0.36610  0.99120  0.52390  1.0000
  H   H28       1.0  0.63390  0.49120  0.97610  1.0000
  C   C25       1.0  0.04690  0.26870  0.31880  1.0000
  C   C26       1.0  0.95310  0.76870  0.18120  1.0000
  C   C27       1.0  0.95310  0.73130  0.68120  1.0000
  C   C28       1.0  0.04690  0.23130  0.81880  1.0000
  C   C29       1.0  0.07440  0.30910  0.25820  1.0000
  C   C30       1.0  0.92560  0.80910  0.24180  1.0000
  C   C31       1.0  0.92560  0.69090  0.74180  1.0000
  C   C32       1.0  0.07440  0.19090  0.75820  1.0000
  H   H29       1.0  0.04630  0.29120  0.20190  1.0000
  H   H30       1.0  0.95370  0.79120  0.29810  1.0000
  H   H31       1.0  0.95370  0.70880  0.79810  1.0000
  H   H32       1.0  0.04630  0.20880  0.70190  1.0000
  H   H33       1.0  0.03770  0.34740  0.25490  1.0000
  H   H34       1.0  0.96230  0.84740  0.24510  1.0000
  H   H35       1.0  0.96230  0.65260  0.74510  1.0000
  H   H36       1.0  0.03770  0.15260  0.75490  1.0000
  C   C33       1.0  0.24650  0.27010  0.26620  1.0000
  C   C34       1.0  0.75350  0.77010  0.23380  1.0000
  C   C35       1.0  0.75350  0.72990  0.73380  1.0000
  C   C36       1.0  0.24650  0.22990  0.76620  1.0000
  H   H37       1.0  0.22860  0.26510  0.20550  1.0000
  H   H38       1.0  0.77140  0.76510  0.29450  1.0000
  H   H39       1.0  0.77140  0.73490  0.79450  1.0000
  H   H40       1.0  0.22860  0.23490  0.70550  1.0000
  H   H41       1.0  0.22810  0.23320  0.28840  1.0000
  H   H42       1.0  0.77190  0.73320  0.21160  1.0000
  H   H43       1.0  0.77190  0.76680  0.71160  1.0000
  H   H44       1.0  0.22810  0.26680  0.78840  1.0000
  C   C37       1.0  0.36490  0.28310  0.30940  1.0000
  C   C38       1.0  0.63510  0.78310  0.19060  1.0000
  C   C39       1.0  0.63510  0.71690  0.69060  1.0000
  C   C40       1.0  0.36490  0.21690  0.80940  1.0000
  H   H45       1.0  0.37970  0.32340  0.29630  1.0000
  H   H46       1.0  0.62030  0.82340  0.20370  1.0000
  H   H47       1.0  0.62030  0.67660  0.70370  1.0000
  H   H48       1.0  0.37970  0.17660  0.79630  1.0000
  H   H49       1.0  0.40620  0.25520  0.28990  1.0000
  H   H50       1.0  0.59380  0.75520  0.21010  1.0000
  H   H51       1.0  0.59380  0.74480  0.71010  1.0000
  H   H52       1.0  0.40620  0.24480  0.78990  1.0000
  H   H53       1.0  0.38530  0.27900  0.36980  1.0000
  H   H54       1.0  0.61470  0.77900  0.13020  1.0000
  H   H55       1.0  0.61470  0.72100  0.63020  1.0000
  H   H56       1.0  0.38530  0.22100  0.86980  1.0000
  C   C41       1.0  0.04410  0.10980  0.32420  1.0000
  C   C42       1.0  0.95590  0.60980  0.17580  1.0000
  C   C43       1.0  0.95590  0.89020  0.67580  1.0000
  C   C44       1.0  0.04410  0.39020  0.82420  1.0000
  C   C45       1.0  0.07870  0.06560  0.27170  1.0000
  C   C46       1.0  0.92130  0.56560  0.22830  1.0000
  C   C47       1.0  0.92130  0.93440  0.72830  1.0000
  C   C48       1.0  0.07870  0.43440  0.77170  1.0000
  H   H57       1.0  0.12970  0.08520  0.25090  1.0000
  H   H58       1.0  0.87030  0.58520  0.24910  1.0000
  H   H59       1.0  0.87030  0.91480  0.74910  1.0000
  H   H60       1.0  0.12970  0.41480  0.75090  1.0000
  H   H61       1.0  0.11630  0.03230  0.30760  1.0000
  H   H62       1.0  0.88370  0.53230  0.19240  1.0000
  H   H63       1.0  0.88370  0.96770  0.69240  1.0000
  H   H64       1.0  0.11630  0.46770  0.80760  1.0000
  C   C49       1.0  0.02380  0.00480  0.15100  1.0000
  C   C50       1.0  0.97620  0.50480  0.34900  1.0000
  C   C51       1.0  0.97620  0.99520  0.84900  1.0000
  C   C52       1.0  0.02380  0.49520  0.65100  1.0000
  H   H65       1.0  0.06340  0.97080  0.18440  1.0000
  H   H66       1.0  0.93660  0.47080  0.31560  1.0000
  H   H67       1.0  0.93660  0.02920  0.81560  1.0000
  H   H68       1.0  0.06340  0.52920  0.68440  1.0000
  H   H69       1.0  0.07240  0.02610  0.12950  1.0000
  H   H70       1.0  0.92760  0.52610  0.37050  1.0000
  H   H71       1.0  0.92760  0.97390  0.87050  1.0000
  H   H72       1.0  0.07240  0.47390  0.62950  1.0000
  C   C53       1.0  0.93170  0.98320  0.08090  1.0000
  C   C54       1.0  0.06830  0.48320  0.41910  1.0000
  C   C55       1.0  0.06830  0.01680  0.91910  1.0000
  C   C56       1.0  0.93170  0.51680  0.58090  1.0000
  H   H73       1.0  0.88950  0.95670  0.10160  1.0000
  H   H74       1.0  0.11050  0.45670  0.39840  1.0000
  H   H75       1.0  0.11050  0.04330  0.89840  1.0000
  H   H76       1.0  0.88950  0.54330  0.60160  1.0000
  H   H77       1.0  0.95630  0.96160  0.04220  1.0000
  H   H78       1.0  0.04370  0.46160  0.45780  1.0000
  H   H79       1.0  0.04370  0.03840  0.95780  1.0000
  H   H80       1.0  0.95630  0.53840  0.54220  1.0000
  H   H81       1.0  0.88740  0.01660  0.05190  1.0000
  H   H82       1.0  0.11260  0.51660  0.44810  1.0000
  H   H83       1.0  0.11260  0.98340  0.94810  1.0000
  H   H84       1.0  0.88740  0.48340  0.55190  1.0000
  C   C57       1.0  0.95550  0.27700  0.50410  1.0000
  C   C58       1.0  0.04450  0.77700  0.99590  1.0000
  C   C59       1.0  0.04450  0.72300  0.49590  1.0000
  C   C60       1.0  0.95550  0.22300  0.00410  1.0000
  C   C61       1.0  0.93670  0.32760  0.55690  1.0000
  C   C62       1.0  0.06330  0.82760  0.94310  1.0000
  C   C63       1.0  0.06330  0.67240  0.44310  1.0000
  C   C64       1.0  0.93670  0.17240  0.05690  1.0000
  H   H85       1.0  0.95480  0.31320  0.61470  1.0000
  H   H86       1.0  0.04520  0.81320  0.88530  1.0000
  H   H87       1.0  0.04520  0.68680  0.38530  1.0000
  H   H88       1.0  0.95480  0.18680  0.11470  1.0000
  H   H89       1.0  0.98640  0.36020  0.55890  1.0000
  H   H90       1.0  0.01360  0.86020  0.94110  1.0000
  H   H91       1.0  0.01360  0.63980  0.44110  1.0000
  H   H92       1.0  0.98640  0.13980  0.05890  1.0000
  C   C65       1.0  0.75820  0.31840  0.55590  1.0000
  C   C66       1.0  0.24180  0.81840  0.94410  1.0000
  C   C67       1.0  0.24180  0.68160  0.44410  1.0000
  C   C68       1.0  0.75820  0.18160  0.05590  1.0000
  H   H93       1.0  0.78330  0.32010  0.61760  1.0000
  H   H94       1.0  0.21670  0.82010  0.88240  1.0000
  H   H95       1.0  0.21670  0.67990  0.38240  1.0000
  H   H96       1.0  0.78330  0.17990  0.11760  1.0000
  H   H97       1.0  0.75560  0.27650  0.53900  1.0000
  H   H98       1.0  0.24440  0.77650  0.96100  1.0000
  H   H99       1.0  0.24440  0.72350  0.46100  1.0000
  H   H100      1.0  0.75560  0.22350  0.03900  1.0000
  C   C69       1.0  0.64650  0.34610  0.51700  1.0000
  C   C70       1.0  0.35350  0.84610  0.98300  1.0000
  C   C71       1.0  0.35350  0.65390  0.48300  1.0000
  C   C72       1.0  0.64650  0.15390  0.01700  1.0000
  H   H101      1.0  0.64750  0.38570  0.54020  1.0000
  H   H102      1.0  0.35250  0.88570  0.95980  1.0000
  H   H103      1.0  0.35250  0.61430  0.45980  1.0000
  H   H104      1.0  0.64750  0.11430  0.04020  1.0000
  H   H105      1.0  0.59460  0.32150  0.52960  1.0000
  H   H106      1.0  0.40540  0.82150  0.97040  1.0000
  H   H107      1.0  0.40540  0.67850  0.47040  1.0000
  H   H108      1.0  0.59460  0.17850  0.02960  1.0000
  H   H109      1.0  0.62620  0.34890  0.45640  1.0000
  H   H110      1.0  0.37380  0.84890  0.04360  1.0000
  H   H111      1.0  0.37380  0.65110  0.54360  1.0000
  H   H112      1.0  0.62620  0.15110  0.95640  1.0000
