data_image0
_chemical_formula_structural       Mg6O36C18H18
_chemical_formula_sum              "Mg6 O36 C18 H18"
_cell_length_a       12.568
_cell_length_b       12.568
_cell_length_c       8.219
_cell_angle_alpha    90
_cell_angle_beta     90
_cell_angle_gamma    120

_space_group_name_H-M_alt    "P 1"
_space_group_IT_number       1

loop_
  _space_group_symop_operation_xyz
  'x, y, z'

loop_
  _atom_site_type_symbol
  _atom_site_label
  _atom_site_symmetry_multiplicity
  _atom_site_fract_x
  _atom_site_fract_y
  _atom_site_fract_z
  _atom_site_occupancy
  Mg  Mg1       1.0  0.99748  0.33193  0.43444  1.0000
  Mg  Mg2       1.0  0.66807  0.66555  0.43444  1.0000
  Mg  Mg3       1.0  0.33445  0.00252  0.43444  1.0000
  Mg  Mg4       1.0  0.00252  0.66807  0.93444  1.0000
  Mg  Mg5       1.0  0.33193  0.33445  0.93444  1.0000
  Mg  Mg6       1.0  0.66555  0.99748  0.93444  1.0000
  O   O1        1.0  0.08815  0.48854  0.28796  1.0000
  O   O2        1.0  0.51146  0.59961  0.28796  1.0000
  O   O3        1.0  0.40039  0.91185  0.28796  1.0000
  O   O4        1.0  0.91185  0.51146  0.78796  1.0000
  O   O5        1.0  0.48854  0.40039  0.78796  1.0000
  O   O6        1.0  0.59961  0.08815  0.78796  1.0000
  O   O7        1.0  0.09242  0.59988  0.07625  1.0000
  O   O8        1.0  0.40012  0.49254  0.07625  1.0000
  O   O9        1.0  0.50746  0.90758  0.07625  1.0000
  O   O10       1.0  0.90758  0.40012  0.57625  1.0000
  O   O11       1.0  0.59988  0.50746  0.57625  1.0000
  O   O12       1.0  0.49254  0.09242  0.57625  1.0000
  O   O13       1.0  0.92974  0.17613  0.58085  1.0000
  O   O14       1.0  0.82387  0.75361  0.58085  1.0000
  O   O15       1.0  0.24639  0.07026  0.58085  1.0000
  O   O16       1.0  0.07026  0.82387  0.08085  1.0000
  O   O17       1.0  0.17613  0.24639  0.08085  1.0000
  O   O18       1.0  0.75361  0.92974  0.08085  1.0000
  O   O19       1.0  0.15490  0.42447  0.57782  1.0000
  O   O20       1.0  0.57553  0.73043  0.57782  1.0000
  O   O21       1.0  0.26957  0.84510  0.57782  1.0000
  O   O22       1.0  0.84510  0.57553  0.07782  1.0000
  O   O23       1.0  0.42447  0.26957  0.07782  1.0000
  O   O24       1.0  0.73043  0.15490  0.07782  1.0000
  O   O25       1.0  0.82378  0.06359  0.79291  1.0000
  O   O26       1.0  0.93641  0.76019  0.79291  1.0000
  O   O27       1.0  0.23981  0.17622  0.79291  1.0000
  O   O28       1.0  0.17622  0.93641  0.29291  1.0000
  O   O29       1.0  0.06359  0.23981  0.29291  1.0000
  O   O30       1.0  0.76019  0.82378  0.29291  1.0000
  O   O31       1.0  0.26357  0.42267  0.78986  1.0000
  O   O32       1.0  0.57733  0.84090  0.78986  1.0000
  O   O33       1.0  0.15910  0.73643  0.78986  1.0000
  O   O34       1.0  0.73643  0.57733  0.28986  1.0000
  O   O35       1.0  0.42267  0.15910  0.28986  1.0000
  O   O36       1.0  0.84090  0.26357  0.28986  1.0000
  C   C1        1.0  0.85773  0.15054  0.69897  1.0000
  C   C2        1.0  0.84946  0.70719  0.69897  1.0000
  C   C3        1.0  0.29281  0.14227  0.69897  1.0000
  C   C4        1.0  0.14227  0.84946  0.19897  1.0000
  C   C5        1.0  0.15054  0.29281  0.19897  1.0000
  C   C6        1.0  0.70719  0.85773  0.19897  1.0000
  C   C7        1.0  0.18554  0.37320  0.68141  1.0000
  C   C8        1.0  0.62680  0.81234  0.68141  1.0000
  C   C9        1.0  0.18766  0.81446  0.68141  1.0000
  C   C10       1.0  0.81446  0.62680  0.18141  1.0000
  C   C11       1.0  0.37320  0.18766  0.18141  1.0000
  C   C12       1.0  0.81234  0.18554  0.18141  1.0000
  C   C13       1.0  0.04034  0.51463  0.17489  1.0000
  C   C14       1.0  0.48537  0.52571  0.17489  1.0000
  C   C15       1.0  0.47429  0.95966  0.17489  1.0000
  C   C16       1.0  0.95966  0.48537  0.67489  1.0000
  C   C17       1.0  0.51463  0.47429  0.67489  1.0000
  C   C18       1.0  0.52571  0.04034  0.67489  1.0000
  H   H1        1.0  0.95550  0.47240  0.17680  1.0000
  H   H2        1.0  0.52760  0.48310  0.17680  1.0000
  H   H3        1.0  0.51690  0.04450  0.17680  1.0000
  H   H4        1.0  0.04450  0.52760  0.67680  1.0000
  H   H5        1.0  0.47240  0.51690  0.67680  1.0000
  H   H6        1.0  0.48310  0.95550  0.67680  1.0000
  H   H7        1.0  0.15770  0.28730  0.67360  1.0000
  H   H8        1.0  0.71270  0.87040  0.67360  1.0000
  H   H9        1.0  0.12960  0.84230  0.67360  1.0000
  H   H10       1.0  0.84230  0.71270  0.17360  1.0000
  H   H11       1.0  0.28730  0.12960  0.17360  1.0000
  H   H12       1.0  0.87040  0.15770  0.17360  1.0000
  H   H13       1.0  0.81830  0.20020  0.70500  1.0000
  H   H14       1.0  0.79980  0.61810  0.70500  1.0000
  H   H15       1.0  0.38190  0.18170  0.70500  1.0000
  H   H16       1.0  0.18170  0.79980  0.20500  1.0000
  H   H17       1.0  0.20020  0.38190  0.20500  1.0000
  H   H18       1.0  0.61810  0.81830  0.20500  1.0000
