data_image0
_chemical_formula_structural       U8O64C52H4C8H8C8H8C8H8C8H8C8H8C4H4
_chemical_formula_sum              "U8 O64 C96 H48"
_cell_length_a       8.3339
_cell_length_b       18.084
_cell_length_c       22.1394
_cell_angle_alpha    90
_cell_angle_beta     90
_cell_angle_gamma    90

_space_group_name_H-M_alt    "P 1"
_space_group_IT_number       1

loop_
  _space_group_symop_operation_xyz
  'x, y, z'

loop_
  _atom_site_type_symbol
  _atom_site_label
  _atom_site_symmetry_multiplicity
  _atom_site_fract_x
  _atom_site_fract_y
  _atom_site_fract_z
  _atom_site_occupancy
  U   U1        1.0  0.02891  0.09954  0.62893  1.0000
  U   U2        1.0  0.97109  0.90046  0.12893  1.0000
  U   U3        1.0  0.97109  0.09954  0.87107  1.0000
  U   U4        1.0  0.02891  0.90046  0.37107  1.0000
  U   U5        1.0  0.52891  0.59954  0.62893  1.0000
  U   U6        1.0  0.47109  0.40046  0.12893  1.0000
  U   U7        1.0  0.47109  0.59954  0.87107  1.0000
  U   U8        1.0  0.52891  0.40046  0.37107  1.0000
  O   O1        1.0  0.12520  0.08190  0.69842  1.0000
  O   O2        1.0  0.87480  0.91810  0.19842  1.0000
  O   O3        1.0  0.87480  0.08190  0.80158  1.0000
  O   O4        1.0  0.12520  0.91810  0.30158  1.0000
  O   O5        1.0  0.62520  0.58190  0.69842  1.0000
  O   O6        1.0  0.37480  0.41810  0.19842  1.0000
  O   O7        1.0  0.37480  0.58190  0.80158  1.0000
  O   O8        1.0  0.62520  0.41810  0.30158  1.0000
  O   O9        1.0  0.93650  0.11611  0.55826  1.0000
  O   O10       1.0  0.06350  0.88389  0.05826  1.0000
  O   O11       1.0  0.06350  0.11611  0.94174  1.0000
  O   O12       1.0  0.93650  0.88389  0.44174  1.0000
  O   O13       1.0  0.43650  0.61611  0.55826  1.0000
  O   O14       1.0  0.56350  0.38389  0.05826  1.0000
  O   O15       1.0  0.56350  0.61611  0.94174  1.0000
  O   O16       1.0  0.43650  0.38389  0.44174  1.0000
  O   O17       1.0  0.92210  0.97258  0.62714  1.0000
  O   O18       1.0  0.07790  0.02742  0.12714  1.0000
  O   O19       1.0  0.07790  0.97258  0.87286  1.0000
  O   O20       1.0  0.92210  0.02742  0.37286  1.0000
  O   O21       1.0  0.42210  0.47258  0.62714  1.0000
  O   O22       1.0  0.57790  0.52742  0.12714  1.0000
  O   O23       1.0  0.57790  0.47258  0.87286  1.0000
  O   O24       1.0  0.42210  0.52742  0.37286  1.0000
  O   O25       1.0  0.74930  0.09410  0.67336  1.0000
  O   O26       1.0  0.25070  0.90590  0.17336  1.0000
  O   O27       1.0  0.25070  0.09410  0.82664  1.0000
  O   O28       1.0  0.74930  0.90590  0.32664  1.0000
  O   O29       1.0  0.24930  0.59410  0.67336  1.0000
  O   O30       1.0  0.75070  0.40590  0.17336  1.0000
  O   O31       1.0  0.75070  0.59410  0.82664  1.0000
  O   O32       1.0  0.24930  0.40590  0.32664  1.0000
  O   O33       1.0  0.66270  0.72179  0.61890  1.0000
  O   O34       1.0  0.33730  0.27821  0.11890  1.0000
  O   O35       1.0  0.33730  0.72179  0.88110  1.0000
  O   O36       1.0  0.66270  0.27821  0.38110  1.0000
  O   O37       1.0  0.16270  0.22179  0.61890  1.0000
  O   O38       1.0  0.83730  0.77821  0.11890  1.0000
  O   O39       1.0  0.83730  0.22179  0.88110  1.0000
  O   O40       1.0  0.16270  0.77821  0.38110  1.0000
  O   O41       1.0  0.88270  0.19850  0.67698  1.0000
  O   O42       1.0  0.11730  0.80150  0.17698  1.0000
  O   O43       1.0  0.11730  0.19850  0.82302  1.0000
  O   O44       1.0  0.88270  0.80150  0.32302  1.0000
  O   O45       1.0  0.38270  0.69850  0.67698  1.0000
  O   O46       1.0  0.61730  0.30150  0.17698  1.0000
  O   O47       1.0  0.61730  0.69850  0.82302  1.0000
  O   O48       1.0  0.38270  0.30150  0.32302  1.0000
  O   O49       1.0  0.80110  0.62703  0.58812  1.0000
  O   O50       1.0  0.19890  0.37297  0.08812  1.0000
  O   O51       1.0  0.19890  0.62703  0.91188  1.0000
  O   O52       1.0  0.80110  0.37297  0.41188  1.0000
  O   O53       1.0  0.30110  0.12703  0.58812  1.0000
  O   O54       1.0  0.69890  0.87297  0.08812  1.0000
  O   O55       1.0  0.69890  0.12703  0.91188  1.0000
  O   O56       1.0  0.30110  0.87297  0.41188  1.0000
  O   O57       1.0  0.16310  0.98706  0.58853  1.0000
  O   O58       1.0  0.83690  0.01294  0.08853  1.0000
  O   O59       1.0  0.83690  0.98706  0.91147  1.0000
  O   O60       1.0  0.16310  0.01294  0.41147  1.0000
  O   O61       1.0  0.66310  0.48706  0.58853  1.0000
  O   O62       1.0  0.33690  0.51294  0.08853  1.0000
  O   O63       1.0  0.33690  0.48706  0.91147  1.0000
  O   O64       1.0  0.66310  0.51294  0.41147  1.0000
  C   C1        1.0  0.04430  0.94510  0.60190  1.0000
  C   C2        1.0  0.95570  0.05490  0.10190  1.0000
  C   C3        1.0  0.95570  0.94510  0.89810  1.0000
  C   C4        1.0  0.04430  0.05490  0.39810  1.0000
  C   C5        1.0  0.54430  0.44510  0.60190  1.0000
  C   C6        1.0  0.45570  0.55490  0.10190  1.0000
  C   C7        1.0  0.45570  0.44510  0.89810  1.0000
  C   C8        1.0  0.54430  0.55490  0.39810  1.0000
  C   C9        1.0  0.75770  0.16220  0.69000  1.0000
  C   C10       1.0  0.24230  0.83780  0.19000  1.0000
  C   C11       1.0  0.24230  0.16220  0.81000  1.0000
  C   C12       1.0  0.75770  0.83780  0.31000  1.0000
  C   C13       1.0  0.25770  0.66220  0.69000  1.0000
  C   C14       1.0  0.74230  0.33780  0.19000  1.0000
  C   C15       1.0  0.74230  0.66220  0.81000  1.0000
  C   C16       1.0  0.25770  0.33780  0.31000  1.0000
  C   C17       1.0  0.79180  0.69600  0.59820  1.0000
  C   C18       1.0  0.20820  0.30400  0.09820  1.0000
  C   C19       1.0  0.20820  0.69600  0.90180  1.0000
  C   C20       1.0  0.79180  0.30400  0.40180  1.0000
  C   C21       1.0  0.29180  0.19600  0.59820  1.0000
  C   C22       1.0  0.70820  0.80400  0.09820  1.0000
  C   C23       1.0  0.70820  0.19600  0.90180  1.0000
  C   C24       1.0  0.29180  0.80400  0.40180  1.0000
  C   C25       1.0  0.62480  0.19920  0.72250  1.0000
  C   C26       1.0  0.37520  0.80080  0.22250  1.0000
  C   C27       1.0  0.37520  0.19920  0.77750  1.0000
  C   C28       1.0  0.62480  0.80080  0.27750  1.0000
  C   C29       1.0  0.12480  0.69920  0.72250  1.0000
  C   C30       1.0  0.87520  0.30080  0.22250  1.0000
  C   C31       1.0  0.87520  0.69920  0.77750  1.0000
  C   C32       1.0  0.12480  0.30080  0.27750  1.0000
  C   C33       1.0  0.05120  0.86490  0.58640  1.0000
  C   C34       1.0  0.94880  0.13510  0.08640  1.0000
  C   C35       1.0  0.94880  0.86490  0.91360  1.0000
  C   C36       1.0  0.05120  0.13510  0.41360  1.0000
  C   C37       1.0  0.55120  0.36490  0.58640  1.0000
  C   C38       1.0  0.44880  0.63510  0.08640  1.0000
  C   C39       1.0  0.44880  0.36490  0.91360  1.0000
  C   C40       1.0  0.55120  0.63510  0.41360  1.0000
  C   C41       1.0  0.92960  0.74450  0.58420  1.0000
  C   C42       1.0  0.07040  0.25550  0.08420  1.0000
  C   C43       1.0  0.07040  0.74450  0.91580  1.0000
  C   C44       1.0  0.92960  0.25550  0.41580  1.0000
  C   C45       1.0  0.42960  0.24450  0.58420  1.0000
  C   C46       1.0  0.57040  0.75550  0.08420  1.0000
  C   C47       1.0  0.57040  0.24450  0.91580  1.0000
  C   C48       1.0  0.42960  0.75550  0.41580  1.0000
  C   C49       1.0  0.50000  0.16060  0.75000  1.0000
  C   C50       1.0  0.50000  0.83940  0.25000  1.0000
  C   C51       1.0  0.00000  0.66060  0.75000  1.0000
  C   C52       1.0  0.00000  0.33940  0.25000  1.0000
  H   H1        1.0  0.50000  0.10910  0.75000  1.0000
  H   H2        1.0  0.50000  0.89090  0.25000  1.0000
  H   H3        1.0  0.00000  0.60910  0.75000  1.0000
  H   H4        1.0  0.00000  0.39090  0.25000  1.0000
  C   C53       1.0  0.92020  0.81980  0.59750  1.0000
  C   C54       1.0  0.07980  0.18020  0.09750  1.0000
  C   C55       1.0  0.07980  0.81980  0.90250  1.0000
  C   C56       1.0  0.92020  0.18020  0.40250  1.0000
  C   C57       1.0  0.42020  0.31980  0.59750  1.0000
  C   C58       1.0  0.57980  0.68020  0.09750  1.0000
  C   C59       1.0  0.57980  0.31980  0.90250  1.0000
  C   C60       1.0  0.42020  0.68020  0.40250  1.0000
  H   H5        1.0  0.82670  0.83950  0.61380  1.0000
  H   H6        1.0  0.17330  0.16050  0.11380  1.0000
  H   H7        1.0  0.17330  0.83950  0.88620  1.0000
  H   H8        1.0  0.82670  0.16050  0.38620  1.0000
  H   H9        1.0  0.32670  0.33950  0.61380  1.0000
  H   H10       1.0  0.67330  0.66050  0.11380  1.0000
  H   H11       1.0  0.67330  0.33950  0.88620  1.0000
  H   H12       1.0  0.32670  0.66050  0.38620  1.0000
  C   C61       1.0  0.18890  0.83520  0.56050  1.0000
  C   C62       1.0  0.81110  0.16480  0.06050  1.0000
  C   C63       1.0  0.81110  0.83520  0.93950  1.0000
  C   C64       1.0  0.18890  0.16480  0.43950  1.0000
  C   C65       1.0  0.68890  0.33520  0.56050  1.0000
  C   C66       1.0  0.31110  0.66480  0.06050  1.0000
  C   C67       1.0  0.31110  0.33520  0.93950  1.0000
  C   C68       1.0  0.68890  0.66480  0.43950  1.0000
  H   H13       1.0  0.27470  0.86610  0.55120  1.0000
  H   H14       1.0  0.72530  0.13390  0.05120  1.0000
  H   H15       1.0  0.72530  0.86610  0.94880  1.0000
  H   H16       1.0  0.27470  0.13390  0.44880  1.0000
  H   H17       1.0  0.77470  0.36610  0.55120  1.0000
  H   H18       1.0  0.22530  0.63390  0.05120  1.0000
  H   H19       1.0  0.22530  0.36610  0.94880  1.0000
  H   H20       1.0  0.77470  0.63390  0.44880  1.0000
  C   C69       1.0  0.62490  0.27580  0.72330  1.0000
  C   C70       1.0  0.37510  0.72420  0.22330  1.0000
  C   C71       1.0  0.37510  0.27580  0.77670  1.0000
  C   C72       1.0  0.62490  0.72420  0.27670  1.0000
  C   C73       1.0  0.12490  0.77580  0.72330  1.0000
  C   C74       1.0  0.87510  0.22420  0.22330  1.0000
  C   C75       1.0  0.87510  0.77580  0.77670  1.0000
  C   C76       1.0  0.12490  0.22420  0.27670  1.0000
  H   H21       1.0  0.70940  0.30170  0.70580  1.0000
  H   H22       1.0  0.29060  0.69830  0.20580  1.0000
  H   H23       1.0  0.29060  0.30170  0.79420  1.0000
  H   H24       1.0  0.70940  0.69830  0.29420  1.0000
  H   H25       1.0  0.20940  0.80170  0.70580  1.0000
  H   H26       1.0  0.79060  0.19830  0.20580  1.0000
  H   H27       1.0  0.79060  0.80170  0.79420  1.0000
  H   H28       1.0  0.20940  0.19830  0.29420  1.0000
  C   C77       1.0  0.06930  0.71640  0.55980  1.0000
  C   C78       1.0  0.93070  0.28360  0.05980  1.0000
  C   C79       1.0  0.93070  0.71640  0.94020  1.0000
  C   C80       1.0  0.06930  0.28360  0.44020  1.0000
  C   C81       1.0  0.56930  0.21640  0.55980  1.0000
  C   C82       1.0  0.43070  0.78360  0.05980  1.0000
  C   C83       1.0  0.43070  0.21640  0.94020  1.0000
  C   C84       1.0  0.56930  0.78360  0.44020  1.0000
  H   H29       1.0  0.07580  0.66620  0.55080  1.0000
  H   H30       1.0  0.92420  0.33380  0.05080  1.0000
  H   H31       1.0  0.92420  0.66620  0.94920  1.0000
  H   H32       1.0  0.07580  0.33380  0.44920  1.0000
  H   H33       1.0  0.57580  0.16620  0.55080  1.0000
  H   H34       1.0  0.42420  0.83380  0.05080  1.0000
  H   H35       1.0  0.42420  0.16620  0.94920  1.0000
  H   H36       1.0  0.57580  0.83380  0.44920  1.0000
  C   C85       1.0  0.19980  0.76160  0.54860  1.0000
  C   C86       1.0  0.80020  0.23840  0.04860  1.0000
  C   C87       1.0  0.80020  0.76160  0.95140  1.0000
  C   C88       1.0  0.19980  0.23840  0.45140  1.0000
  C   C89       1.0  0.69980  0.26160  0.54860  1.0000
  C   C90       1.0  0.30020  0.73840  0.04860  1.0000
  C   C91       1.0  0.30020  0.26160  0.95140  1.0000
  C   C92       1.0  0.69980  0.73840  0.45140  1.0000
  H   H37       1.0  0.29420  0.74180  0.53300  1.0000
  H   H38       1.0  0.70580  0.25820  0.03300  1.0000
  H   H39       1.0  0.70580  0.74180  0.96700  1.0000
  H   H40       1.0  0.29420  0.25820  0.46700  1.0000
  H   H41       1.0  0.79420  0.24180  0.53300  1.0000
  H   H42       1.0  0.20580  0.75820  0.03300  1.0000
  H   H43       1.0  0.20580  0.24180  0.96700  1.0000
  H   H44       1.0  0.79420  0.75820  0.46700  1.0000
  C   C93       1.0  0.50000  0.31400  0.75000  1.0000
  C   C94       1.0  0.50000  0.68600  0.25000  1.0000
  C   C95       1.0  0.00000  0.81400  0.75000  1.0000
  C   C96       1.0  0.00000  0.18600  0.25000  1.0000
  H   H45       1.0  0.50000  0.36540  0.75000  1.0000
  H   H46       1.0  0.50000  0.63460  0.25000  1.0000
  H   H47       1.0  0.00000  0.86540  0.75000  1.0000
  H   H48       1.0  0.00000  0.13460  0.25000  1.0000
