data_image0
_chemical_formula_structural       U2O8C16O12C4H4
_chemical_formula_sum              "U2 O20 C20 H4"
_cell_length_a       7.2181
_cell_length_b       13.6858
_cell_length_c       9.2779
_cell_angle_alpha    90
_cell_angle_beta     92.58
_cell_angle_gamma    90

_space_group_name_H-M_alt    "P 1"
_space_group_IT_number       1

loop_
  _space_group_symop_operation_xyz
  'x, y, z'

loop_
  _atom_site_type_symbol
  _atom_site_label
  _atom_site_symmetry_multiplicity
  _atom_site_fract_x
  _atom_site_fract_y
  _atom_site_fract_z
  _atom_site_occupancy
  U   U1        1.0  0.00000  0.00000  0.00000  1.0000
  U   U2        1.0  0.50000  0.50000  0.50000  1.0000
  O   O1        1.0  0.08200  0.97250  0.26470  1.0000
  O   O2        1.0  0.41800  0.47250  0.23530  1.0000
  O   O3        1.0  0.91800  0.02750  0.73530  1.0000
  O   O4        1.0  0.58200  0.52750  0.76470  1.0000
  O   O5        1.0  0.31550  0.98260  0.12380  1.0000
  O   O6        1.0  0.18450  0.48260  0.37620  1.0000
  O   O7        1.0  0.68450  0.01740  0.87620  1.0000
  O   O8        1.0  0.81550  0.51740  0.62380  1.0000
  C   C1        1.0  0.38370  0.98580  0.37850  1.0000
  C   C2        1.0  0.11630  0.48580  0.12150  1.0000
  C   C3        1.0  0.61630  0.01420  0.62150  1.0000
  C   C4        1.0  0.88370  0.51420  0.87850  1.0000
  C   C5        1.0  0.25150  0.98020  0.25040  1.0000
  C   C6        1.0  0.24850  0.48020  0.24960  1.0000
  C   C7        1.0  0.74850  0.01980  0.74960  1.0000
  C   C8        1.0  0.75150  0.51980  0.75040  1.0000
  C   C9        1.0  0.57470  0.98230  0.36440  1.0000
  C   C10       1.0  0.92530  0.48230  0.13560  1.0000
  C   C11       1.0  0.42530  0.01770  0.63560  1.0000
  C   C12       1.0  0.07470  0.51770  0.86440  1.0000
  C   C13       1.0  0.30960  0.00800  0.51220  1.0000
  C   C14       1.0  0.19040  0.50800  0.98780  1.0000
  C   C15       1.0  0.69040  0.99200  0.48780  1.0000
  C   C16       1.0  0.80960  0.49200  0.01220  1.0000
  O   O9        1.0  0.02190  0.12430  0.01840  1.0000
  O   O10       1.0  0.47810  0.62430  0.48160  1.0000
  O   O11       1.0  0.97810  0.87570  0.98160  1.0000
  O   O12       1.0  0.52190  0.37570  0.51840  1.0000
  O   O13       1.0  0.74630  0.02580  0.16170  1.0000
  O   O14       1.0  0.75370  0.52580  0.33830  1.0000
  O   O15       1.0  0.25370  0.97420  0.83830  1.0000
  O   O16       1.0  0.24630  0.47420  0.66170  1.0000
  O   O17       1.0  0.66650  0.86910  0.19440  1.0000
  O   O18       1.0  0.83350  0.36910  0.30560  1.0000
  O   O19       1.0  0.33350  0.13090  0.80560  1.0000
  O   O20       1.0  0.16650  0.63090  0.69440  1.0000
  C   C17       1.0  0.66660  0.95460  0.22490  1.0000
  C   C18       1.0  0.83340  0.45460  0.27510  1.0000
  C   C19       1.0  0.33340  0.04540  0.77510  1.0000
  C   C20       1.0  0.16660  0.54540  0.72490  1.0000
  H   H1        1.0  0.17820  0.01649  0.51851  1.0000
  H   H2        1.0  0.32180  0.51649  0.98149  1.0000
  H   H3        1.0  0.82180  0.98351  0.48149  1.0000
  H   H4        1.0  0.67820  0.48351  0.01851  1.0000
