data_image0
_chemical_formula_structural       U8S12O64C24H8C8H8C40H8
_chemical_formula_sum              "U8 S12 O64 C72 H24"
_cell_length_a       12.42
_cell_length_b       18.132
_cell_length_c       16.188
_cell_angle_alpha    90
_cell_angle_beta     104.28
_cell_angle_gamma    90

_space_group_name_H-M_alt    "P 1"
_space_group_IT_number       1

loop_
  _space_group_symop_operation_xyz
  'x, y, z'

loop_
  _atom_site_type_symbol
  _atom_site_label
  _atom_site_symmetry_multiplicity
  _atom_site_fract_x
  _atom_site_fract_y
  _atom_site_fract_z
  _atom_site_occupancy
  U   U1        1.0  0.60626  0.18380  0.09343  1.0000
  U   U2        1.0  0.39374  0.18380  0.40657  1.0000
  U   U3        1.0  0.10626  0.68380  0.09343  1.0000
  U   U4        1.0  0.89374  0.68380  0.40657  1.0000
  U   U5        1.0  0.39374  0.81620  0.90657  1.0000
  U   U6        1.0  0.60626  0.81620  0.59343  1.0000
  U   U7        1.0  0.89374  0.31620  0.90657  1.0000
  U   U8        1.0  0.10626  0.31620  0.59343  1.0000
  S   S1        1.0  0.50000  0.18797  0.75000  1.0000
  S   S2        1.0  0.00000  0.68797  0.75000  1.0000
  S   S3        1.0  0.50000  0.81203  0.25000  1.0000
  S   S4        1.0  0.00000  0.31203  0.25000  1.0000
  S   S5        1.0  0.69106  0.43337  0.26431  1.0000
  S   S6        1.0  0.30894  0.43337  0.23569  1.0000
  S   S7        1.0  0.19106  0.93337  0.26431  1.0000
  S   S8        1.0  0.80894  0.93337  0.23569  1.0000
  S   S9        1.0  0.30894  0.56663  0.73569  1.0000
  S   S10       1.0  0.69106  0.56663  0.76431  1.0000
  S   S11       1.0  0.80894  0.06663  0.73569  1.0000
  S   S12       1.0  0.19106  0.06663  0.76431  1.0000
  O   O1        1.0  0.59660  0.30630  0.15460  1.0000
  O   O2        1.0  0.40340  0.30630  0.34540  1.0000
  O   O3        1.0  0.09660  0.80630  0.15460  1.0000
  O   O4        1.0  0.90340  0.80630  0.34540  1.0000
  O   O5        1.0  0.40340  0.69370  0.84540  1.0000
  O   O6        1.0  0.59660  0.69370  0.65460  1.0000
  O   O7        1.0  0.90340  0.19370  0.84540  1.0000
  O   O8        1.0  0.09660  0.19370  0.65460  1.0000
  O   O9        1.0  0.66240  0.21830  0.24630  1.0000
  O   O10       1.0  0.33760  0.21830  0.25370  1.0000
  O   O11       1.0  0.16240  0.71830  0.24630  1.0000
  O   O12       1.0  0.83760  0.71830  0.25370  1.0000
  O   O13       1.0  0.33760  0.78170  0.75370  1.0000
  O   O14       1.0  0.66240  0.78170  0.74630  1.0000
  O   O15       1.0  0.83760  0.28170  0.75370  1.0000
  O   O16       1.0  0.16240  0.28170  0.74630  1.0000
  O   O17       1.0  0.87310  0.55310  0.44910  1.0000
  O   O18       1.0  0.12690  0.55310  0.05090  1.0000
  O   O19       1.0  0.37310  0.05310  0.44910  1.0000
  O   O20       1.0  0.62690  0.05310  0.05090  1.0000
  O   O21       1.0  0.12690  0.44690  0.55090  1.0000
  O   O22       1.0  0.87310  0.44690  0.94910  1.0000
  O   O23       1.0  0.62690  0.94690  0.55090  1.0000
  O   O24       1.0  0.37310  0.94690  0.94910  1.0000
  O   O25       1.0  0.80750  0.57830  0.31260  1.0000
  O   O26       1.0  0.19250  0.57830  0.18740  1.0000
  O   O27       1.0  0.30750  0.07830  0.31260  1.0000
  O   O28       1.0  0.69250  0.07830  0.18740  1.0000
  O   O29       1.0  0.19250  0.42170  0.68740  1.0000
  O   O30       1.0  0.80750  0.42170  0.81260  1.0000
  O   O31       1.0  0.69250  0.92170  0.68740  1.0000
  O   O32       1.0  0.30750  0.92170  0.81260  1.0000
  O   O33       1.0  0.55730  0.16312  0.93650  1.0000
  O   O34       1.0  0.44270  0.16312  0.56350  1.0000
  O   O35       1.0  0.05730  0.66312  0.93650  1.0000
  O   O36       1.0  0.94270  0.66312  0.56350  1.0000
  O   O37       1.0  0.44270  0.83688  0.06350  1.0000
  O   O38       1.0  0.55730  0.83688  0.43650  1.0000
  O   O39       1.0  0.94270  0.33688  0.06350  1.0000
  O   O40       1.0  0.05730  0.33688  0.43650  1.0000
  O   O41       1.0  0.52780  0.27635  0.97620  1.0000
  O   O42       1.0  0.47220  0.27635  0.52380  1.0000
  O   O43       1.0  0.02780  0.77635  0.97620  1.0000
  O   O44       1.0  0.97220  0.77635  0.52380  1.0000
  O   O45       1.0  0.47220  0.72365  0.02380  1.0000
  O   O46       1.0  0.52780  0.72365  0.47620  1.0000
  O   O47       1.0  0.97220  0.22365  0.02380  1.0000
  O   O48       1.0  0.02780  0.22365  0.47620  1.0000
  O   O49       1.0  0.74070  0.20490  0.08270  1.0000
  O   O50       1.0  0.25930  0.20490  0.41730  1.0000
  O   O51       1.0  0.24070  0.70490  0.08270  1.0000
  O   O52       1.0  0.75930  0.70490  0.41730  1.0000
  O   O53       1.0  0.25930  0.79510  0.91730  1.0000
  O   O54       1.0  0.74070  0.79510  0.58270  1.0000
  O   O55       1.0  0.75930  0.29510  0.91730  1.0000
  O   O56       1.0  0.24070  0.29510  0.58270  1.0000
  O   O57       1.0  0.47090  0.16200  0.10190  1.0000
  O   O58       1.0  0.52910  0.16200  0.39810  1.0000
  O   O59       1.0  0.97090  0.66200  0.10190  1.0000
  O   O60       1.0  0.02910  0.66200  0.39810  1.0000
  O   O61       1.0  0.52910  0.83800  0.89810  1.0000
  O   O62       1.0  0.47090  0.83800  0.60190  1.0000
  O   O63       1.0  0.02910  0.33800  0.89810  1.0000
  O   O64       1.0  0.97090  0.33800  0.60190  1.0000
  C   C1        1.0  0.64600  0.28500  0.23020  1.0000
  C   C2        1.0  0.35400  0.28500  0.26980  1.0000
  C   C3        1.0  0.14600  0.78500  0.23020  1.0000
  C   C4        1.0  0.85400  0.78500  0.26980  1.0000
  C   C5        1.0  0.35400  0.71500  0.76980  1.0000
  C   C6        1.0  0.64600  0.71500  0.73020  1.0000
  C   C7        1.0  0.85400  0.21500  0.76980  1.0000
  C   C8        1.0  0.14600  0.21500  0.73020  1.0000
  C   C9        1.0  0.69560  0.34190  0.29340  1.0000
  C   C10       1.0  0.30440  0.34190  0.20660  1.0000
  C   C11       1.0  0.19560  0.84190  0.29340  1.0000
  C   C12       1.0  0.80440  0.84190  0.20660  1.0000
  C   C13       1.0  0.30440  0.65810  0.70660  1.0000
  C   C14       1.0  0.69560  0.65810  0.79340  1.0000
  C   C15       1.0  0.80440  0.15810  0.70660  1.0000
  C   C16       1.0  0.19560  0.15810  0.79340  1.0000
  C   C17       1.0  0.75910  0.33180  0.37520  1.0000
  C   C18       1.0  0.24090  0.33180  0.12480  1.0000
  C   C19       1.0  0.25910  0.83180  0.37520  1.0000
  C   C20       1.0  0.74090  0.83180  0.12480  1.0000
  C   C21       1.0  0.24090  0.66820  0.62480  1.0000
  C   C22       1.0  0.75910  0.66820  0.87520  1.0000
  C   C23       1.0  0.74090  0.16820  0.62480  1.0000
  C   C24       1.0  0.25910  0.16820  0.87520  1.0000
  H   H1        1.0  0.76990  0.28620  0.40250  1.0000
  H   H2        1.0  0.23010  0.28620  0.09750  1.0000
  H   H3        1.0  0.26990  0.78620  0.40250  1.0000
  H   H4        1.0  0.73010  0.78620  0.09750  1.0000
  H   H5        1.0  0.23010  0.71380  0.59750  1.0000
  H   H6        1.0  0.76990  0.71380  0.90250  1.0000
  H   H7        1.0  0.73010  0.21380  0.59750  1.0000
  H   H8        1.0  0.26990  0.21380  0.90250  1.0000
  C   C25       1.0  0.80570  0.39810  0.41310  1.0000
  C   C26       1.0  0.19430  0.39810  0.08690  1.0000
  C   C27       1.0  0.30570  0.89810  0.41310  1.0000
  C   C28       1.0  0.69430  0.89810  0.08690  1.0000
  C   C29       1.0  0.19430  0.60190  0.58690  1.0000
  C   C30       1.0  0.80570  0.60190  0.91310  1.0000
  C   C31       1.0  0.69430  0.10190  0.58690  1.0000
  C   C32       1.0  0.30570  0.10190  0.91310  1.0000
  H   H9        1.0  0.85130  0.40090  0.46810  1.0000
  H   H10       1.0  0.14870  0.40090  0.03190  1.0000
  H   H11       1.0  0.35130  0.90090  0.46810  1.0000
  H   H12       1.0  0.64870  0.90090  0.03190  1.0000
  H   H13       1.0  0.14870  0.59910  0.53190  1.0000
  H   H14       1.0  0.85130  0.59910  0.96810  1.0000
  H   H15       1.0  0.64870  0.09910  0.53190  1.0000
  H   H16       1.0  0.35130  0.09910  0.96810  1.0000
  C   C33       1.0  0.77730  0.45800  0.36090  1.0000
  C   C34       1.0  0.22270  0.45800  0.13910  1.0000
  C   C35       1.0  0.27730  0.95800  0.36090  1.0000
  C   C36       1.0  0.72270  0.95800  0.13910  1.0000
  C   C37       1.0  0.22270  0.54200  0.63910  1.0000
  C   C38       1.0  0.77730  0.54200  0.86090  1.0000
  C   C39       1.0  0.72270  0.04200  0.63910  1.0000
  C   C40       1.0  0.27730  0.04200  0.86090  1.0000
  C   C41       1.0  0.82060  0.53410  0.37430  1.0000
  C   C42       1.0  0.17940  0.53410  0.12570  1.0000
  C   C43       1.0  0.32060  0.03410  0.37430  1.0000
  C   C44       1.0  0.67940  0.03410  0.12570  1.0000
  C   C45       1.0  0.17940  0.46590  0.62570  1.0000
  C   C46       1.0  0.82060  0.46590  0.87430  1.0000
  C   C47       1.0  0.67940  0.96590  0.62570  1.0000
  C   C48       1.0  0.32060  0.96590  0.87430  1.0000
  C   C49       1.0  0.53410  0.23090  0.91780  1.0000
  C   C50       1.0  0.46590  0.23090  0.58220  1.0000
  C   C51       1.0  0.03410  0.73090  0.91780  1.0000
  C   C52       1.0  0.96590  0.73090  0.58220  1.0000
  C   C53       1.0  0.46590  0.76910  0.08220  1.0000
  C   C54       1.0  0.53410  0.76910  0.41780  1.0000
  C   C55       1.0  0.96590  0.26910  0.08220  1.0000
  C   C56       1.0  0.03410  0.26910  0.41780  1.0000
  C   C57       1.0  0.51270  0.25340  0.82750  1.0000
  C   C58       1.0  0.48730  0.25340  0.67250  1.0000
  C   C59       1.0  0.01270  0.75340  0.82750  1.0000
  C   C60       1.0  0.98730  0.75340  0.67250  1.0000
  C   C61       1.0  0.48730  0.74660  0.17250  1.0000
  C   C62       1.0  0.51270  0.74660  0.32750  1.0000
  C   C63       1.0  0.98730  0.24660  0.17250  1.0000
  C   C64       1.0  0.01270  0.24660  0.32750  1.0000
  C   C65       1.0  0.50790  0.32250  0.79500  1.0000
  C   C66       1.0  0.49210  0.32250  0.70500  1.0000
  C   C67       1.0  0.00790  0.82250  0.79500  1.0000
  C   C68       1.0  0.99210  0.82250  0.70500  1.0000
  C   C69       1.0  0.49210  0.67750  0.20500  1.0000
  C   C70       1.0  0.50790  0.67750  0.29500  1.0000
  C   C71       1.0  0.99210  0.17750  0.20500  1.0000
  C   C72       1.0  0.00790  0.17750  0.29500  1.0000
  H   H17       1.0  0.51420  0.36510  0.82780  1.0000
  H   H18       1.0  0.48580  0.36510  0.67220  1.0000
  H   H19       1.0  0.01420  0.86510  0.82780  1.0000
  H   H20       1.0  0.98580  0.86510  0.67220  1.0000
  H   H21       1.0  0.48580  0.63490  0.17220  1.0000
  H   H22       1.0  0.51420  0.63490  0.32780  1.0000
  H   H23       1.0  0.98580  0.13490  0.17220  1.0000
  H   H24       1.0  0.01420  0.13490  0.32780  1.0000
