data_image0
_chemical_formula_structural       Cd3Si2O8C2O2C8O2C4H2C6H2C2H2C2H2C2H2C2H2O4C10H2C2H2C2H2C2H2C2H2C2H2C2H2C2H2C2H2C2H2
_chemical_formula_sum              "Cd3 Si2 O16 C56 H32"
_cell_length_a       14.097
_cell_length_b       14.2015
_cell_length_c       14.2649
_cell_angle_alpha    115.663
_cell_angle_beta     113.627
_cell_angle_gamma    97.603

_space_group_name_H-M_alt    "P 1"
_space_group_IT_number       1

loop_
  _space_group_symop_operation_xyz
  'x, y, z'

loop_
  _atom_site_type_symbol
  _atom_site_label
  _atom_site_symmetry_multiplicity
  _atom_site_fract_x
  _atom_site_fract_y
  _atom_site_fract_z
  _atom_site_occupancy
  Cd  Cd1       1.0  0.00565  0.88663  0.18695  1.0000
  Cd  Cd2       1.0  0.99435  0.11337  0.81305  1.0000
  Cd  Cd3       1.0  0.00000  1.00000  0.00000  1.0000
  Si  Si1       1.0  0.26351  0.64836  0.68439  1.0000
  Si  Si2       1.0  0.73649  0.35164  0.31561  1.0000
  O   O1        1.0  0.01879  0.72021  0.03279  1.0000
  O   O2        1.0  0.98121  0.27979  0.96721  1.0000
  O   O3        1.0  0.07789  0.89195  0.07076  1.0000
  O   O4        1.0  0.92211  0.10805  0.92924  1.0000
  O   O5        1.0  0.82670  0.81659  0.05562  1.0000
  O   O6        1.0  0.17330  0.18341  0.94438  1.0000
  O   O7        1.0  0.82871  0.90796  0.96122  1.0000
  O   O8        1.0  0.17129  0.09204  0.03878  1.0000
  C   C1        1.0  0.42041  0.70440  0.77459  1.0000
  C   C2        1.0  0.57959  0.29560  0.22541  1.0000
  O   O9        1.0  0.05978  0.06926  0.31534  1.0000
  O   O10       1.0  0.94022  0.93074  0.68466  1.0000
  C   C3        1.0  0.20702  0.68322  0.78868  1.0000
  C   C4        1.0  0.79298  0.31678  0.21132  1.0000
  C   C5        1.0  0.11823  0.75135  0.94104  1.0000
  C   C6        1.0  0.88177  0.24865  0.05896  1.0000
  C   C7        1.0  0.21825  0.71808  0.59739  1.0000
  C   C8        1.0  0.78175  0.28192  0.40261  1.0000
  C   C9        1.0  0.06714  0.78778  0.01858  1.0000
  C   C10       1.0  0.93286  0.21222  0.98142  1.0000
  O   O11       1.0  0.04866  0.12317  0.18642  1.0000
  O   O12       1.0  0.95134  0.87683  0.81358  1.0000
  C   C11       1.0  0.11887  0.26359  0.38777  1.0000
  C   C12       1.0  0.88113  0.73641  0.61223  1.0000
  C   C13       1.0  0.17116  0.29775  0.50902  1.0000
  C   C14       1.0  0.82884  0.70225  0.49098  1.0000
  H   H1        1.0  0.17700  0.24350  0.53090  1.0000
  H   H2        1.0  0.82300  0.75650  0.46910  1.0000
  C   C15       1.0  0.07148  0.14149  0.28816  1.0000
  C   C16       1.0  0.92852  0.85851  0.71184  1.0000
  C   C17       1.0  0.20681  0.49352  0.56958  1.0000
  C   C18       1.0  0.79319  0.50648  0.43042  1.0000
  C   C19       1.0  0.21494  0.41127  0.59847  1.0000
  C   C20       1.0  0.78506  0.58873  0.40153  1.0000
  H   H3        1.0  0.25120  0.43360  0.68110  1.0000
  H   H4        1.0  0.74880  0.56640  0.31890  1.0000
  C   C21       1.0  0.15384  0.45668  0.44663  1.0000
  C   C22       1.0  0.84616  0.54332  0.55337  1.0000
  H   H5        1.0  0.14670  0.51020  0.42390  1.0000
  H   H6        1.0  0.85330  0.48980  0.57610  1.0000
  C   C23       1.0  0.09533  0.63781  0.86690  1.0000
  C   C24       1.0  0.90467  0.36219  0.13310  1.0000
  H   H7        1.0  0.05050  0.58310  0.86860  1.0000
  H   H8        1.0  0.94950  0.41690  0.13140  1.0000
  C   C25       1.0  0.11160  0.34369  0.35748  1.0000
  C   C26       1.0  0.88840  0.65631  0.64252  1.0000
  H   H9        1.0  0.07730  0.32100  0.27480  1.0000
  H   H10       1.0  0.92270  0.67900  0.72520  1.0000
  C   C27       1.0  0.18635  0.83108  0.94080  1.0000
  C   C28       1.0  0.81365  0.16892  0.05920  1.0000
  H   H11       1.0  0.20250  0.90880  0.99150  1.0000
  H   H12       1.0  0.79750  0.09120  0.00850  1.0000
  O   O13       1.0  0.99003  0.82558  0.31114  1.0000
  O   O14       1.0  0.00997  0.17442  0.68886  1.0000
  O   O15       1.0  0.14915  0.86110  0.31622  1.0000
  O   O16       1.0  0.85085  0.13890  0.68378  1.0000
  C   C29       1.0  0.13478  0.79134  0.43725  1.0000
  C   C30       1.0  0.86522  0.20866  0.56275  1.0000
  C   C31       1.0  0.78161  0.84429  0.98083  1.0000
  C   C32       1.0  0.21839  0.15571  0.01917  1.0000
  C   C33       1.0  0.65567  0.79502  0.90902  1.0000
  C   C34       1.0  0.34433  0.20498  0.09098  1.0000
  C   C35       1.0  0.08806  0.82805  0.34950  1.0000
  C   C36       1.0  0.91194  0.17195  0.65050  1.0000
  C   C37       1.0  0.48078  0.81625  0.82250  1.0000
  C   C38       1.0  0.51922  0.18375  0.17750  1.0000
  H   H13       1.0  0.44150  0.86350  0.81120  1.0000
  H   H14       1.0  0.55850  0.13650  0.18880  1.0000
  C   C39       1.0  0.48164  0.63926  0.79760  1.0000
  C   C40       1.0  0.51836  0.36074  0.20240  1.0000
  H   H15       1.0  0.44340  0.56260  0.76570  1.0000
  H   H16       1.0  0.55660  0.43740  0.23430  1.0000
  C   C41       1.0  0.13805  0.60437  0.79031  1.0000
  C   C42       1.0  0.86195  0.39563  0.20969  1.0000
  H   H17       1.0  0.12000  0.52650  0.73810  1.0000
  H   H18       1.0  0.88000  0.47350  0.26190  1.0000
  C   C43       1.0  0.59619  0.86039  0.88620  1.0000
  C   C44       1.0  0.40381  0.13961  0.11380  1.0000
  H   H19       1.0  0.63480  0.93580  0.91430  1.0000
  H   H20       1.0  0.36520  0.06420  0.08570  1.0000
  C   C45       1.0  0.11346  0.72580  0.56000  1.0000
  C   C46       1.0  0.88654  0.27420  0.44000  1.0000
  H   H21       1.0  0.06940  0.70590  0.58920  1.0000
  H   H22       1.0  0.93060  0.29410  0.41080  1.0000
  C   C47       1.0  0.28055  0.74965  0.55360  1.0000
  C   C48       1.0  0.71945  0.25035  0.44640  1.0000
  H   H23       1.0  0.35270  0.74610  0.57830  1.0000
  H   H24       1.0  0.64730  0.25390  0.42170  1.0000
  C   C49       1.0  0.23994  0.78613  0.47470  1.0000
  C   C50       1.0  0.76006  0.21387  0.52530  1.0000
  H   H25       1.0  0.28430  0.80750  0.44650  1.0000
  H   H26       1.0  0.71570  0.19250  0.55350  1.0000
  C   C51       1.0  0.59769  0.68473  0.86640  1.0000
  C   C52       1.0  0.40231  0.31527  0.13360  1.0000
  H   H27       1.0  0.63740  0.64000  0.88440  1.0000
  H   H28       1.0  0.36260  0.36000  0.11560  1.0000
  C   C53       1.0  0.23080  0.79729  0.86650  1.0000
  C   C54       1.0  0.76920  0.20271  0.13350  1.0000
  H   H29       1.0  0.27860  0.85270  0.86830  1.0000
  H   H30       1.0  0.72140  0.14730  0.13170  1.0000
  C   C55       1.0  0.07227  0.76180  0.48110  1.0000
  C   C56       1.0  0.92773  0.23820  0.51890  1.0000
  H   H31       1.0  0.00050  0.76630  0.45690  1.0000
  H   H32       1.0  0.99950  0.23370  0.54310  1.0000
