data_image0
_chemical_formula_structural       Fe36O216C36H36C36H36C36H36
_chemical_formula_sum              "Fe36 O216 C108 H108"
_cell_length_a       14.2896
_cell_length_b       14.2896
_cell_length_c       41.483
_cell_angle_alpha    90
_cell_angle_beta     90
_cell_angle_gamma    120

_space_group_name_H-M_alt    "P 1"
_space_group_IT_number       1

loop_
  _space_group_symop_operation_xyz
  'x, y, z'

loop_
  _atom_site_type_symbol
  _atom_site_label
  _atom_site_symmetry_multiplicity
  _atom_site_fract_x
  _atom_site_fract_y
  _atom_site_fract_z
  _atom_site_occupancy
  Fe  Fe1       1.0  0.99321  0.33330  0.08330  1.0000
  Fe  Fe2       1.0  0.66670  0.65991  0.08330  1.0000
  Fe  Fe3       1.0  0.34009  0.00679  0.08330  1.0000
  Fe  Fe4       1.0  0.33330  0.99321  0.41670  1.0000
  Fe  Fe5       1.0  0.65991  0.66670  0.41670  1.0000
  Fe  Fe6       1.0  0.00679  0.34009  0.41670  1.0000
  Fe  Fe7       1.0  0.99997  0.32654  0.75003  1.0000
  Fe  Fe8       1.0  0.32658  0.00003  0.75003  1.0000
  Fe  Fe9       1.0  0.67346  0.67342  0.75003  1.0000
  Fe  Fe10      1.0  0.00679  0.66670  0.91670  1.0000
  Fe  Fe11      1.0  0.33330  0.34009  0.91670  1.0000
  Fe  Fe12      1.0  0.65991  0.99321  0.91670  1.0000
  Fe  Fe13      1.0  0.66670  0.00679  0.58330  1.0000
  Fe  Fe14      1.0  0.34009  0.33330  0.58330  1.0000
  Fe  Fe15      1.0  0.99321  0.65991  0.58330  1.0000
  Fe  Fe16      1.0  0.00003  0.67346  0.24997  1.0000
  Fe  Fe17      1.0  0.67342  0.99997  0.24997  1.0000
  Fe  Fe18      1.0  0.32654  0.32658  0.24997  1.0000
  Fe  Fe19      1.0  0.00000  0.00000  0.00000  1.0000
  Fe  Fe20      1.0  0.00000  0.00000  0.50000  1.0000
  Fe  Fe21      1.0  0.66667  0.33333  0.33333  1.0000
  Fe  Fe22      1.0  0.66667  0.33333  0.83333  1.0000
  Fe  Fe23      1.0  0.33333  0.66667  0.66667  1.0000
  Fe  Fe24      1.0  0.33333  0.66667  0.16667  1.0000
  Fe  Fe25      1.0  0.66670  0.33330  0.99758  1.0000
  Fe  Fe26      1.0  0.33330  0.66670  0.50242  1.0000
  Fe  Fe27      1.0  0.33337  0.66663  0.33091  1.0000
  Fe  Fe28      1.0  0.99997  0.00003  0.83575  1.0000
  Fe  Fe29      1.0  0.00003  0.99997  0.66425  1.0000
  Fe  Fe30      1.0  0.66663  0.33337  0.16909  1.0000
  Fe  Fe31      1.0  0.33330  0.66670  0.00242  1.0000
  Fe  Fe32      1.0  0.66670  0.33330  0.49758  1.0000
  Fe  Fe33      1.0  0.66663  0.33337  0.66909  1.0000
  Fe  Fe34      1.0  0.00003  0.99997  0.16425  1.0000
  Fe  Fe35      1.0  0.99997  0.00003  0.33575  1.0000
  Fe  Fe36      1.0  0.33337  0.66663  0.83091  1.0000
  O   O1        1.0  0.05940  0.47759  0.05482  1.0000
  O   O2        1.0  0.52241  0.58181  0.05482  1.0000
  O   O3        1.0  0.41819  0.94060  0.05482  1.0000
  O   O4        1.0  0.47759  0.05940  0.44518  1.0000
  O   O5        1.0  0.58181  0.52241  0.44518  1.0000
  O   O6        1.0  0.94060  0.41819  0.44518  1.0000
  O   O7        1.0  0.72607  0.81092  0.38815  1.0000
  O   O8        1.0  0.18908  0.91514  0.38815  1.0000
  O   O9        1.0  0.08486  0.27393  0.38815  1.0000
  O   O10       1.0  0.14426  0.39273  0.77851  1.0000
  O   O11       1.0  0.24848  0.85574  0.77851  1.0000
  O   O12       1.0  0.60727  0.75152  0.77851  1.0000
  O   O13       1.0  0.39273  0.14426  0.72149  1.0000
  O   O14       1.0  0.85574  0.24848  0.72149  1.0000
  O   O15       1.0  0.75152  0.60727  0.72149  1.0000
  O   O16       1.0  0.81092  0.72607  0.11185  1.0000
  O   O17       1.0  0.91514  0.18908  0.11185  1.0000
  O   O18       1.0  0.27393  0.08486  0.11185  1.0000
  O   O19       1.0  0.94060  0.52241  0.94518  1.0000
  O   O20       1.0  0.47759  0.41819  0.94518  1.0000
  O   O21       1.0  0.58181  0.05940  0.94518  1.0000
  O   O22       1.0  0.52241  0.94060  0.55482  1.0000
  O   O23       1.0  0.41819  0.47759  0.55482  1.0000
  O   O24       1.0  0.05940  0.58181  0.55482  1.0000
  O   O25       1.0  0.27393  0.18908  0.61185  1.0000
  O   O26       1.0  0.81092  0.08486  0.61185  1.0000
  O   O27       1.0  0.91514  0.72607  0.61185  1.0000
  O   O28       1.0  0.85574  0.60727  0.22149  1.0000
  O   O29       1.0  0.75152  0.14426  0.22149  1.0000
  O   O30       1.0  0.39273  0.24848  0.22149  1.0000
  O   O31       1.0  0.60727  0.85574  0.27851  1.0000
  O   O32       1.0  0.14426  0.75152  0.27851  1.0000
  O   O33       1.0  0.24848  0.39273  0.27851  1.0000
  O   O34       1.0  0.18908  0.27393  0.88815  1.0000
  O   O35       1.0  0.08486  0.81092  0.88815  1.0000
  O   O36       1.0  0.72607  0.91514  0.88815  1.0000
  O   O37       1.0  0.84478  0.25324  0.05737  1.0000
  O   O38       1.0  0.74676  0.59154  0.05737  1.0000
  O   O39       1.0  0.40846  0.15522  0.05737  1.0000
  O   O40       1.0  0.25324  0.84478  0.44263  1.0000
  O   O41       1.0  0.59154  0.74676  0.44263  1.0000
  O   O42       1.0  0.15522  0.40846  0.44263  1.0000
  O   O43       1.0  0.51145  0.58657  0.39070  1.0000
  O   O44       1.0  0.41343  0.92487  0.39070  1.0000
  O   O45       1.0  0.07513  0.48855  0.39070  1.0000
  O   O46       1.0  0.91991  0.17811  0.77596  1.0000
  O   O47       1.0  0.25821  0.08009  0.77596  1.0000
  O   O48       1.0  0.82189  0.74179  0.77596  1.0000
  O   O49       1.0  0.17811  0.91991  0.72404  1.0000
  O   O50       1.0  0.08009  0.25821  0.72404  1.0000
  O   O51       1.0  0.74179  0.82189  0.72404  1.0000
  O   O52       1.0  0.58657  0.51145  0.10930  1.0000
  O   O53       1.0  0.92487  0.41343  0.10930  1.0000
  O   O54       1.0  0.48855  0.07513  0.10930  1.0000
  O   O55       1.0  0.15522  0.74676  0.94263  1.0000
  O   O56       1.0  0.25324  0.40846  0.94263  1.0000
  O   O57       1.0  0.59154  0.84478  0.94263  1.0000
  O   O58       1.0  0.74676  0.15522  0.55737  1.0000
  O   O59       1.0  0.40846  0.25324  0.55737  1.0000
  O   O60       1.0  0.84478  0.59154  0.55737  1.0000
  O   O61       1.0  0.48855  0.41343  0.60930  1.0000
  O   O62       1.0  0.58657  0.07513  0.60930  1.0000
  O   O63       1.0  0.92487  0.51145  0.60930  1.0000
  O   O64       1.0  0.08009  0.82189  0.22404  1.0000
  O   O65       1.0  0.74179  0.91991  0.22404  1.0000
  O   O66       1.0  0.17811  0.25821  0.22404  1.0000
  O   O67       1.0  0.82189  0.08009  0.27596  1.0000
  O   O68       1.0  0.91991  0.74179  0.27596  1.0000
  O   O69       1.0  0.25821  0.17811  0.27596  1.0000
  O   O70       1.0  0.41343  0.48855  0.89070  1.0000
  O   O71       1.0  0.07513  0.58657  0.89070  1.0000
  O   O72       1.0  0.51145  0.92487  0.89070  1.0000
  O   O73       1.0  0.19888  0.60869  0.02881  1.0000
  O   O74       1.0  0.39131  0.59019  0.02881  1.0000
  O   O75       1.0  0.40981  0.80112  0.02881  1.0000
  O   O76       1.0  0.60869  0.19888  0.47119  1.0000
  O   O77       1.0  0.59019  0.39131  0.47119  1.0000
  O   O78       1.0  0.80112  0.40981  0.47119  1.0000
  O   O79       1.0  0.86555  0.94202  0.36214  1.0000
  O   O80       1.0  0.05798  0.92352  0.36214  1.0000
  O   O81       1.0  0.07648  0.13445  0.36214  1.0000
  O   O82       1.0  0.27536  0.53221  0.80452  1.0000
  O   O83       1.0  0.25686  0.72464  0.80452  1.0000
  O   O84       1.0  0.46779  0.74314  0.80452  1.0000
  O   O85       1.0  0.53221  0.27536  0.69548  1.0000
  O   O86       1.0  0.72464  0.25686  0.69548  1.0000
  O   O87       1.0  0.74314  0.46779  0.69548  1.0000
  O   O88       1.0  0.94202  0.86555  0.13786  1.0000
  O   O89       1.0  0.92352  0.05798  0.13786  1.0000
  O   O90       1.0  0.13445  0.07648  0.13786  1.0000
  O   O91       1.0  0.80112  0.39131  0.97119  1.0000
  O   O92       1.0  0.60869  0.40981  0.97119  1.0000
  O   O93       1.0  0.59019  0.19888  0.97119  1.0000
  O   O94       1.0  0.39131  0.80112  0.52881  1.0000
  O   O95       1.0  0.40981  0.60869  0.52881  1.0000
  O   O96       1.0  0.19888  0.59019  0.52881  1.0000
  O   O97       1.0  0.13445  0.05798  0.63786  1.0000
  O   O98       1.0  0.94202  0.07648  0.63786  1.0000
  O   O99       1.0  0.92352  0.86555  0.63786  1.0000
  O   O100      1.0  0.72464  0.46779  0.19548  1.0000
  O   O101      1.0  0.74314  0.27536  0.19548  1.0000
  O   O102      1.0  0.53221  0.25686  0.19548  1.0000
  O   O103      1.0  0.46779  0.72464  0.30452  1.0000
  O   O104      1.0  0.27536  0.74314  0.30452  1.0000
  O   O105      1.0  0.25686  0.53221  0.30452  1.0000
  O   O106      1.0  0.05798  0.13445  0.86214  1.0000
  O   O107      1.0  0.07648  0.94202  0.86214  1.0000
  O   O108      1.0  0.86555  0.92352  0.86214  1.0000
  O   O109      1.0  0.06365  0.26553  0.05442  1.0000
  O   O110      1.0  0.73447  0.79812  0.05442  1.0000
  O   O111      1.0  0.20188  0.93635  0.05442  1.0000
  O   O112      1.0  0.26553  0.06365  0.44558  1.0000
  O   O113      1.0  0.79812  0.73447  0.44558  1.0000
  O   O114      1.0  0.93635  0.20188  0.44558  1.0000
  O   O115      1.0  0.73032  0.59886  0.38775  1.0000
  O   O116      1.0  0.40114  0.13145  0.38775  1.0000
  O   O117      1.0  0.86855  0.26968  0.38775  1.0000
  O   O118      1.0  0.93220  0.39698  0.77891  1.0000
  O   O119      1.0  0.46479  0.06780  0.77891  1.0000
  O   O120      1.0  0.60302  0.53521  0.77891  1.0000
  O   O121      1.0  0.39698  0.93220  0.72109  1.0000
  O   O122      1.0  0.06780  0.46479  0.72109  1.0000
  O   O123      1.0  0.53521  0.60302  0.72109  1.0000
  O   O124      1.0  0.59886  0.73032  0.11225  1.0000
  O   O125      1.0  0.13145  0.40114  0.11225  1.0000
  O   O126      1.0  0.26968  0.86855  0.11225  1.0000
  O   O127      1.0  0.93635  0.73447  0.94558  1.0000
  O   O128      1.0  0.26553  0.20188  0.94558  1.0000
  O   O129      1.0  0.79812  0.06365  0.94558  1.0000
  O   O130      1.0  0.73447  0.93635  0.55442  1.0000
  O   O131      1.0  0.20188  0.26553  0.55442  1.0000
  O   O132      1.0  0.06365  0.79812  0.55442  1.0000
  O   O133      1.0  0.26968  0.40114  0.61225  1.0000
  O   O134      1.0  0.59886  0.86855  0.61225  1.0000
  O   O135      1.0  0.13145  0.73032  0.61225  1.0000
  O   O136      1.0  0.06780  0.60302  0.22109  1.0000
  O   O137      1.0  0.53521  0.93220  0.22109  1.0000
  O   O138      1.0  0.39698  0.46479  0.22109  1.0000
  O   O139      1.0  0.60302  0.06780  0.27891  1.0000
  O   O140      1.0  0.93220  0.53521  0.27891  1.0000
  O   O141      1.0  0.46479  0.39698  0.27891  1.0000
  O   O142      1.0  0.40114  0.26968  0.88775  1.0000
  O   O143      1.0  0.86855  0.59886  0.88775  1.0000
  O   O144      1.0  0.73032  0.13145  0.88775  1.0000
  O   O145      1.0  0.72089  0.25591  0.02603  1.0000
  O   O146      1.0  0.74409  0.46498  0.02603  1.0000
  O   O147      1.0  0.53502  0.27911  0.02603  1.0000
  O   O148      1.0  0.25591  0.72089  0.47397  1.0000
  O   O149      1.0  0.46498  0.74409  0.47397  1.0000
  O   O150      1.0  0.27911  0.53502  0.47397  1.0000
  O   O151      1.0  0.38756  0.58924  0.35936  1.0000
  O   O152      1.0  0.41076  0.79831  0.35936  1.0000
  O   O153      1.0  0.20169  0.61244  0.35936  1.0000
  O   O154      1.0  0.92258  0.05422  0.80730  1.0000
  O   O155      1.0  0.13165  0.07742  0.80730  1.0000
  O   O156      1.0  0.94578  0.86835  0.80730  1.0000
  O   O157      1.0  0.05422  0.92258  0.69270  1.0000
  O   O158      1.0  0.07742  0.13165  0.69270  1.0000
  O   O159      1.0  0.86835  0.94578  0.69270  1.0000
  O   O160      1.0  0.58924  0.38756  0.14064  1.0000
  O   O161      1.0  0.79831  0.41076  0.14064  1.0000
  O   O162      1.0  0.61244  0.20169  0.14064  1.0000
  O   O163      1.0  0.27911  0.74409  0.97397  1.0000
  O   O164      1.0  0.25591  0.53502  0.97397  1.0000
  O   O165      1.0  0.46498  0.72089  0.97397  1.0000
  O   O166      1.0  0.74409  0.27911  0.52603  1.0000
  O   O167      1.0  0.53502  0.25591  0.52603  1.0000
  O   O168      1.0  0.72089  0.46498  0.52603  1.0000
  O   O169      1.0  0.61244  0.41076  0.64064  1.0000
  O   O170      1.0  0.58924  0.20169  0.64064  1.0000
  O   O171      1.0  0.79831  0.38756  0.64064  1.0000
  O   O172      1.0  0.07742  0.94578  0.19270  1.0000
  O   O173      1.0  0.86835  0.92258  0.19270  1.0000
  O   O174      1.0  0.05422  0.13165  0.19270  1.0000
  O   O175      1.0  0.94578  0.07742  0.30730  1.0000
  O   O176      1.0  0.92258  0.86835  0.30730  1.0000
  O   O177      1.0  0.13165  0.05422  0.30730  1.0000
  O   O178      1.0  0.41076  0.61244  0.85936  1.0000
  O   O179      1.0  0.20169  0.58924  0.85936  1.0000
  O   O180      1.0  0.38756  0.79831  0.85936  1.0000
  O   O181      1.0  0.06732  0.13440  0.02707  1.0000
  O   O182      1.0  0.86560  0.93292  0.02707  1.0000
  O   O183      1.0  0.06708  0.93268  0.02707  1.0000
  O   O184      1.0  0.13440  0.06732  0.47293  1.0000
  O   O185      1.0  0.93292  0.86560  0.47293  1.0000
  O   O186      1.0  0.93268  0.06708  0.47293  1.0000
  O   O187      1.0  0.73399  0.46773  0.36040  1.0000
  O   O188      1.0  0.53227  0.26625  0.36040  1.0000
  O   O189      1.0  0.73375  0.26601  0.36040  1.0000
  O   O190      1.0  0.80107  0.40065  0.80626  1.0000
  O   O191      1.0  0.59959  0.19893  0.80626  1.0000
  O   O192      1.0  0.59935  0.40041  0.80626  1.0000
  O   O193      1.0  0.40065  0.80107  0.69374  1.0000
  O   O194      1.0  0.19893  0.59959  0.69374  1.0000
  O   O195      1.0  0.40041  0.59935  0.69374  1.0000
  O   O196      1.0  0.46773  0.73399  0.13960  1.0000
  O   O197      1.0  0.26625  0.53227  0.13960  1.0000
  O   O198      1.0  0.26601  0.73375  0.13960  1.0000
  O   O199      1.0  0.93268  0.86560  0.97293  1.0000
  O   O200      1.0  0.13440  0.06708  0.97293  1.0000
  O   O201      1.0  0.93292  0.06732  0.97293  1.0000
  O   O202      1.0  0.86560  0.93268  0.52707  1.0000
  O   O203      1.0  0.06708  0.13440  0.52707  1.0000
  O   O204      1.0  0.06732  0.93292  0.52707  1.0000
  O   O205      1.0  0.26601  0.53227  0.63960  1.0000
  O   O206      1.0  0.46773  0.73375  0.63960  1.0000
  O   O207      1.0  0.26625  0.73399  0.63960  1.0000
  O   O208      1.0  0.19893  0.59935  0.19374  1.0000
  O   O209      1.0  0.40041  0.80107  0.19374  1.0000
  O   O210      1.0  0.40065  0.59959  0.19374  1.0000
  O   O211      1.0  0.59935  0.19893  0.30626  1.0000
  O   O212      1.0  0.80107  0.40041  0.30626  1.0000
  O   O213      1.0  0.59959  0.40065  0.30626  1.0000
  O   O214      1.0  0.53227  0.26601  0.86040  1.0000
  O   O215      1.0  0.73375  0.46773  0.86040  1.0000
  O   O216      1.0  0.73399  0.26625  0.86040  1.0000
  C   C1        1.0  0.01890  0.17878  0.03965  1.0000
  C   C2        1.0  0.82122  0.84012  0.03965  1.0000
  C   C3        1.0  0.15988  0.98110  0.03965  1.0000
  C   C4        1.0  0.17878  0.01890  0.46035  1.0000
  C   C5        1.0  0.84012  0.82122  0.46035  1.0000
  C   C6        1.0  0.98110  0.15988  0.46035  1.0000
  C   C7        1.0  0.68557  0.51211  0.37298  1.0000
  C   C8        1.0  0.48789  0.17345  0.37298  1.0000
  C   C9        1.0  0.82655  0.31443  0.37298  1.0000
  C   C10       1.0  0.84545  0.35223  0.79368  1.0000
  C   C11       1.0  0.50679  0.15455  0.79368  1.0000
  C   C12       1.0  0.64777  0.49321  0.79368  1.0000
  C   C13       1.0  0.35223  0.84545  0.70632  1.0000
  C   C14       1.0  0.15455  0.50679  0.70632  1.0000
  C   C15       1.0  0.49321  0.64777  0.70632  1.0000
  C   C16       1.0  0.51211  0.68557  0.12702  1.0000
  C   C17       1.0  0.17345  0.48789  0.12702  1.0000
  C   C18       1.0  0.31443  0.82655  0.12702  1.0000
  C   C19       1.0  0.98110  0.82122  0.96035  1.0000
  C   C20       1.0  0.17878  0.15988  0.96035  1.0000
  C   C21       1.0  0.84012  0.01890  0.96035  1.0000
  C   C22       1.0  0.82122  0.98110  0.53965  1.0000
  C   C23       1.0  0.15988  0.17878  0.53965  1.0000
  C   C24       1.0  0.01890  0.84012  0.53965  1.0000
  C   C25       1.0  0.31443  0.48789  0.62702  1.0000
  C   C26       1.0  0.51211  0.82655  0.62702  1.0000
  C   C27       1.0  0.17345  0.68557  0.62702  1.0000
  C   C28       1.0  0.15455  0.64777  0.20632  1.0000
  C   C29       1.0  0.49321  0.84545  0.20632  1.0000
  C   C30       1.0  0.35223  0.50679  0.20632  1.0000
  C   C31       1.0  0.64777  0.15455  0.29368  1.0000
  C   C32       1.0  0.84545  0.49321  0.29368  1.0000
  C   C33       1.0  0.50679  0.35223  0.29368  1.0000
  C   C34       1.0  0.48789  0.31443  0.87298  1.0000
  C   C35       1.0  0.82655  0.51211  0.87298  1.0000
  C   C36       1.0  0.68557  0.17345  0.87298  1.0000
  H   H1        1.0  0.94410  0.14370  0.03770  1.0000
  H   H2        1.0  0.85630  0.80040  0.03770  1.0000
  H   H3        1.0  0.19960  0.05590  0.03770  1.0000
  H   H4        1.0  0.14370  0.94410  0.46230  1.0000
  H   H5        1.0  0.80040  0.85630  0.46230  1.0000
  H   H6        1.0  0.05590  0.19960  0.46230  1.0000
  H   H7        1.0  0.61077  0.47703  0.37103  1.0000
  H   H8        1.0  0.52297  0.13373  0.37103  1.0000
  H   H9        1.0  0.86627  0.38923  0.37103  1.0000
  H   H10       1.0  0.81037  0.27743  0.79563  1.0000
  H   H11       1.0  0.46707  0.18963  0.79563  1.0000
  H   H12       1.0  0.72257  0.53293  0.79563  1.0000
  H   H13       1.0  0.27743  0.81037  0.70437  1.0000
  H   H14       1.0  0.18963  0.46707  0.70437  1.0000
  H   H15       1.0  0.53293  0.72257  0.70437  1.0000
  H   H16       1.0  0.47703  0.61077  0.12897  1.0000
  H   H17       1.0  0.13373  0.52297  0.12897  1.0000
  H   H18       1.0  0.38923  0.86627  0.12897  1.0000
  H   H19       1.0  0.05590  0.85630  0.96230  1.0000
  H   H20       1.0  0.14370  0.19960  0.96230  1.0000
  H   H21       1.0  0.80040  0.94410  0.96230  1.0000
  H   H22       1.0  0.85630  0.05590  0.53770  1.0000
  H   H23       1.0  0.19960  0.14370  0.53770  1.0000
  H   H24       1.0  0.94410  0.80040  0.53770  1.0000
  H   H25       1.0  0.38923  0.52297  0.62897  1.0000
  H   H26       1.0  0.47703  0.86627  0.62897  1.0000
  H   H27       1.0  0.13373  0.61077  0.62897  1.0000
  H   H28       1.0  0.18963  0.72257  0.20437  1.0000
  H   H29       1.0  0.53293  0.81037  0.20437  1.0000
  H   H30       1.0  0.27743  0.46707  0.20437  1.0000
  H   H31       1.0  0.72257  0.18963  0.29563  1.0000
  H   H32       1.0  0.81037  0.53293  0.29563  1.0000
  H   H33       1.0  0.46707  0.27743  0.29563  1.0000
  H   H34       1.0  0.52297  0.38923  0.87103  1.0000
  H   H35       1.0  0.86627  0.47703  0.87103  1.0000
  H   H36       1.0  0.61077  0.13373  0.87103  1.0000
  C   C37       1.0  0.81523  0.29850  0.03750  1.0000
  C   C38       1.0  0.70150  0.51673  0.03750  1.0000
  C   C39       1.0  0.48327  0.18477  0.03750  1.0000
  C   C40       1.0  0.29850  0.81523  0.46250  1.0000
  C   C41       1.0  0.51673  0.70150  0.46250  1.0000
  C   C42       1.0  0.18477  0.48327  0.46250  1.0000
  C   C43       1.0  0.48190  0.63183  0.37083  1.0000
  C   C44       1.0  0.36817  0.85006  0.37083  1.0000
  C   C45       1.0  0.14994  0.51810  0.37083  1.0000
  C   C46       1.0  0.96517  0.14856  0.79583  1.0000
  C   C47       1.0  0.18340  0.03483  0.79583  1.0000
  C   C48       1.0  0.85144  0.81660  0.79583  1.0000
  C   C49       1.0  0.14856  0.96517  0.70417  1.0000
  C   C50       1.0  0.03483  0.18340  0.70417  1.0000
  C   C51       1.0  0.81660  0.85144  0.70417  1.0000
  C   C52       1.0  0.63183  0.48190  0.12917  1.0000
  C   C53       1.0  0.85006  0.36817  0.12917  1.0000
  C   C54       1.0  0.51810  0.14994  0.12917  1.0000
  C   C55       1.0  0.18477  0.70150  0.96250  1.0000
  C   C56       1.0  0.29850  0.48327  0.96250  1.0000
  C   C57       1.0  0.51673  0.81523  0.96250  1.0000
  C   C58       1.0  0.70150  0.18477  0.53750  1.0000
  C   C59       1.0  0.48327  0.29850  0.53750  1.0000
  C   C60       1.0  0.81523  0.51673  0.53750  1.0000
  C   C61       1.0  0.51810  0.36817  0.62917  1.0000
  C   C62       1.0  0.63183  0.14994  0.62917  1.0000
  C   C63       1.0  0.85006  0.48190  0.62917  1.0000
  C   C64       1.0  0.03483  0.85144  0.20417  1.0000
  C   C65       1.0  0.81660  0.96517  0.20417  1.0000
  C   C66       1.0  0.14856  0.18340  0.20417  1.0000
  C   C67       1.0  0.85144  0.03483  0.29583  1.0000
  C   C68       1.0  0.96517  0.81660  0.29583  1.0000
  C   C69       1.0  0.18340  0.14856  0.29583  1.0000
  C   C70       1.0  0.36817  0.51810  0.87083  1.0000
  C   C71       1.0  0.14994  0.63183  0.87083  1.0000
  C   C72       1.0  0.48190  0.85006  0.87083  1.0000
  H   H37       1.0  0.86560  0.36780  0.03070  1.0000
  H   H38       1.0  0.63220  0.49780  0.03070  1.0000
  H   H39       1.0  0.50220  0.13440  0.03070  1.0000
  H   H40       1.0  0.36780  0.86560  0.46930  1.0000
  H   H41       1.0  0.49780  0.63220  0.46930  1.0000
  H   H42       1.0  0.13440  0.50220  0.46930  1.0000
  H   H43       1.0  0.53227  0.70113  0.36403  1.0000
  H   H44       1.0  0.29887  0.83113  0.36403  1.0000
  H   H45       1.0  0.16887  0.46773  0.36403  1.0000
  H   H46       1.0  0.03447  0.19893  0.80263  1.0000
  H   H47       1.0  0.16447  0.96553  0.80263  1.0000
  H   H48       1.0  0.80107  0.83553  0.80263  1.0000
  H   H49       1.0  0.19893  0.03447  0.69737  1.0000
  H   H50       1.0  0.96553  0.16447  0.69737  1.0000
  H   H51       1.0  0.83553  0.80107  0.69737  1.0000
  H   H52       1.0  0.70113  0.53227  0.13597  1.0000
  H   H53       1.0  0.83113  0.29887  0.13597  1.0000
  H   H54       1.0  0.46773  0.16887  0.13597  1.0000
  H   H55       1.0  0.13440  0.63220  0.96930  1.0000
  H   H56       1.0  0.36780  0.50220  0.96930  1.0000
  H   H57       1.0  0.49780  0.86560  0.96930  1.0000
  H   H58       1.0  0.63220  0.13440  0.53070  1.0000
  H   H59       1.0  0.50220  0.36780  0.53070  1.0000
  H   H60       1.0  0.86560  0.49780  0.53070  1.0000
  H   H61       1.0  0.46773  0.29887  0.63597  1.0000
  H   H62       1.0  0.70113  0.16887  0.63597  1.0000
  H   H63       1.0  0.83113  0.53227  0.63597  1.0000
  H   H64       1.0  0.96553  0.80107  0.19737  1.0000
  H   H65       1.0  0.83553  0.03447  0.19737  1.0000
  H   H66       1.0  0.19893  0.16447  0.19737  1.0000
  H   H67       1.0  0.80107  0.96553  0.30263  1.0000
  H   H68       1.0  0.03447  0.83553  0.30263  1.0000
  H   H69       1.0  0.16447  0.19893  0.30263  1.0000
  H   H70       1.0  0.29887  0.46773  0.86403  1.0000
  H   H71       1.0  0.16887  0.70113  0.86403  1.0000
  H   H72       1.0  0.53227  0.83113  0.86403  1.0000
  C   C73       1.0  0.14809  0.51524  0.04105  1.0000
  C   C74       1.0  0.48476  0.63285  0.04105  1.0000
  C   C75       1.0  0.36715  0.85191  0.04105  1.0000
  C   C76       1.0  0.51524  0.14809  0.45895  1.0000
  C   C77       1.0  0.63285  0.48476  0.45895  1.0000
  C   C78       1.0  0.85191  0.36715  0.45895  1.0000
  C   C79       1.0  0.81476  0.84857  0.37438  1.0000
  C   C80       1.0  0.15143  0.96618  0.37438  1.0000
  C   C81       1.0  0.03382  0.18524  0.37438  1.0000
  C   C82       1.0  0.18191  0.48142  0.79228  1.0000
  C   C83       1.0  0.29952  0.81809  0.79228  1.0000
  C   C84       1.0  0.51858  0.70048  0.79228  1.0000
  C   C85       1.0  0.48142  0.18191  0.70772  1.0000
  C   C86       1.0  0.81809  0.29952  0.70772  1.0000
  C   C87       1.0  0.70048  0.51858  0.70772  1.0000
  C   C88       1.0  0.84857  0.81476  0.12562  1.0000
  C   C89       1.0  0.96618  0.15143  0.12562  1.0000
  C   C90       1.0  0.18524  0.03382  0.12562  1.0000
  C   C91       1.0  0.85191  0.48476  0.95895  1.0000
  C   C92       1.0  0.51524  0.36715  0.95895  1.0000
  C   C93       1.0  0.63285  0.14809  0.95895  1.0000
  C   C94       1.0  0.48476  0.85191  0.54105  1.0000
  C   C95       1.0  0.36715  0.51524  0.54105  1.0000
  C   C96       1.0  0.14809  0.63285  0.54105  1.0000
  C   C97       1.0  0.18524  0.15143  0.62562  1.0000
  C   C98       1.0  0.84857  0.03382  0.62562  1.0000
  C   C99       1.0  0.96618  0.81476  0.62562  1.0000
  C   C100      1.0  0.81809  0.51858  0.20772  1.0000
  C   C101      1.0  0.70048  0.18191  0.20772  1.0000
  C   C102      1.0  0.48142  0.29952  0.20772  1.0000
  C   C103      1.0  0.51858  0.81809  0.29228  1.0000
  C   C104      1.0  0.18191  0.70048  0.29228  1.0000
  C   C105      1.0  0.29952  0.48142  0.29228  1.0000
  C   C106      1.0  0.15143  0.18524  0.87438  1.0000
  C   C107      1.0  0.03382  0.84857  0.87438  1.0000
  C   C108      1.0  0.81476  0.96618  0.87438  1.0000
  H   H73       1.0  0.17930  0.47180  0.03960  1.0000
  H   H74       1.0  0.52820  0.70750  0.03960  1.0000
  H   H75       1.0  0.29250  0.82070  0.03960  1.0000
  H   H76       1.0  0.47180  0.17930  0.46040  1.0000
  H   H77       1.0  0.70750  0.52820  0.46040  1.0000
  H   H78       1.0  0.82070  0.29250  0.46040  1.0000
  H   H79       1.0  0.84597  0.80513  0.37293  1.0000
  H   H80       1.0  0.19487  0.04083  0.37293  1.0000
  H   H81       1.0  0.95917  0.15403  0.37293  1.0000
  H   H82       1.0  0.13847  0.51263  0.79373  1.0000
  H   H83       1.0  0.37417  0.86153  0.79373  1.0000
  H   H84       1.0  0.48737  0.62583  0.79373  1.0000
  H   H85       1.0  0.51263  0.13847  0.70627  1.0000
  H   H86       1.0  0.86153  0.37417  0.70627  1.0000
  H   H87       1.0  0.62583  0.48737  0.70627  1.0000
  H   H88       1.0  0.80513  0.84597  0.12707  1.0000
  H   H89       1.0  0.04083  0.19487  0.12707  1.0000
  H   H90       1.0  0.15403  0.95917  0.12707  1.0000
  H   H91       1.0  0.82070  0.52820  0.96040  1.0000
  H   H92       1.0  0.47180  0.29250  0.96040  1.0000
  H   H93       1.0  0.70750  0.17930  0.96040  1.0000
  H   H94       1.0  0.52820  0.82070  0.53960  1.0000
  H   H95       1.0  0.29250  0.47180  0.53960  1.0000
  H   H96       1.0  0.17930  0.70750  0.53960  1.0000
  H   H97       1.0  0.15403  0.19487  0.62707  1.0000
  H   H98       1.0  0.80513  0.95917  0.62707  1.0000
  H   H99       1.0  0.04083  0.84597  0.62707  1.0000
  H   H100      1.0  0.86153  0.48737  0.20627  1.0000
  H   H101      1.0  0.62583  0.13847  0.20627  1.0000
  H   H102      1.0  0.51263  0.37417  0.20627  1.0000
  H   H103      1.0  0.48737  0.86153  0.29373  1.0000
  H   H104      1.0  0.13847  0.62583  0.29373  1.0000
  H   H105      1.0  0.37417  0.51263  0.29373  1.0000
  H   H106      1.0  0.19487  0.15403  0.87293  1.0000
  H   H107      1.0  0.95917  0.80513  0.87293  1.0000
  H   H108      1.0  0.84597  0.04083  0.87293  1.0000
