data_image0
_chemical_formula_structural       Fe4O24C12H12
_chemical_formula_sum              "Fe4 O24 C12 H12"
_cell_length_a       8.255
_cell_length_b       8.255
_cell_length_c       13.891
_cell_angle_alpha    90
_cell_angle_beta     90
_cell_angle_gamma    120

_space_group_name_H-M_alt    "P 1"
_space_group_IT_number       1

loop_
  _space_group_symop_operation_xyz
  'x, y, z'

loop_
  _atom_site_type_symbol
  _atom_site_label
  _atom_site_symmetry_multiplicity
  _atom_site_fract_x
  _atom_site_fract_y
  _atom_site_fract_z
  _atom_site_occupancy
  Fe  Fe1       1.0  0.66670  0.33330  0.25000  1.0000
  Fe  Fe2       1.0  0.33330  0.66670  0.75000  1.0000
  Fe  Fe3       1.0  0.00000  0.00000  0.00000  1.0000
  Fe  Fe4       1.0  0.00000  0.00000  0.50000  1.0000
  O   O1        1.0  0.88650  0.34220  0.16680  1.0000
  O   O2        1.0  0.65780  0.54430  0.16680  1.0000
  O   O3        1.0  0.65780  0.11350  0.33320  1.0000
  O   O4        1.0  0.45570  0.11350  0.16680  1.0000
  O   O5        1.0  0.88650  0.54430  0.33320  1.0000
  O   O6        1.0  0.45570  0.34220  0.33320  1.0000
  O   O7        1.0  0.11350  0.65780  0.83320  1.0000
  O   O8        1.0  0.34220  0.45570  0.83320  1.0000
  O   O9        1.0  0.34220  0.88650  0.66680  1.0000
  O   O10       1.0  0.54430  0.88650  0.83320  1.0000
  O   O11       1.0  0.11350  0.45570  0.66680  1.0000
  O   O12       1.0  0.54430  0.65780  0.66680  1.0000
  O   O13       1.0  0.01230  0.20650  0.08170  1.0000
  O   O14       1.0  0.79350  0.80580  0.08170  1.0000
  O   O15       1.0  0.79350  0.98770  0.41830  1.0000
  O   O16       1.0  0.19420  0.98770  0.08170  1.0000
  O   O17       1.0  0.01230  0.80580  0.41830  1.0000
  O   O18       1.0  0.19420  0.20650  0.41830  1.0000
  O   O19       1.0  0.98770  0.79350  0.91830  1.0000
  O   O20       1.0  0.20650  0.19420  0.91830  1.0000
  O   O21       1.0  0.20650  0.01230  0.58170  1.0000
  O   O22       1.0  0.80580  0.01230  0.91830  1.0000
  O   O23       1.0  0.98770  0.19420  0.58170  1.0000
  O   O24       1.0  0.80580  0.79350  0.58170  1.0000
  C   C1        1.0  0.87520  0.21140  0.11820  1.0000
  C   C2        1.0  0.78860  0.66380  0.11820  1.0000
  C   C3        1.0  0.78860  0.12480  0.38180  1.0000
  C   C4        1.0  0.33620  0.12480  0.11820  1.0000
  C   C5        1.0  0.87520  0.66380  0.38180  1.0000
  C   C6        1.0  0.33620  0.21140  0.38180  1.0000
  C   C7        1.0  0.12480  0.78860  0.88180  1.0000
  C   C8        1.0  0.21140  0.33620  0.88180  1.0000
  C   C9        1.0  0.21140  0.87520  0.61820  1.0000
  C   C10       1.0  0.66380  0.87520  0.88180  1.0000
  C   C11       1.0  0.12480  0.33620  0.61820  1.0000
  C   C12       1.0  0.66380  0.78860  0.61820  1.0000
  H   H1        1.0  0.73740  0.09140  0.10480  1.0000
  H   H2        1.0  0.90860  0.64600  0.10480  1.0000
  H   H3        1.0  0.90860  0.26260  0.39520  1.0000
  H   H4        1.0  0.35400  0.26260  0.10480  1.0000
  H   H5        1.0  0.73740  0.64600  0.39520  1.0000
  H   H6        1.0  0.35400  0.09140  0.39520  1.0000
  H   H7        1.0  0.26260  0.90860  0.89520  1.0000
  H   H8        1.0  0.09140  0.35400  0.89520  1.0000
  H   H9        1.0  0.09140  0.73740  0.60480  1.0000
  H   H10       1.0  0.64600  0.73740  0.89520  1.0000
  H   H11       1.0  0.26260  0.35400  0.60480  1.0000
  H   H12       1.0  0.64600  0.90860  0.60480  1.0000
