data_image0
_chemical_formula_structural       Fe36O216C108H108
_chemical_formula_sum              "Fe36 O216 C108 H108"
_cell_length_a       14.26
_cell_length_b       14.26
_cell_length_c       41.443
_cell_angle_alpha    90
_cell_angle_beta     90
_cell_angle_gamma    120

_space_group_name_H-M_alt    "P 1"
_space_group_IT_number       1

loop_
  _space_group_symop_operation_xyz
  'x, y, z'

loop_
  _atom_site_type_symbol
  _atom_site_label
  _atom_site_symmetry_multiplicity
  _atom_site_fract_x
  _atom_site_fract_y
  _atom_site_fract_z
  _atom_site_occupancy
  Fe  Fe1       1.0  0.34066  0.00733  0.08330  1.0000
  Fe  Fe2       1.0  0.99267  0.33333  0.08330  1.0000
  Fe  Fe3       1.0  0.00733  0.34066  0.41670  1.0000
  Fe  Fe4       1.0  0.66667  0.65934  0.08330  1.0000
  Fe  Fe5       1.0  0.65934  0.66667  0.41670  1.0000
  Fe  Fe6       1.0  0.33333  0.99267  0.41670  1.0000
  Fe  Fe7       1.0  0.67400  0.67399  0.75003  1.0000
  Fe  Fe8       1.0  0.32601  0.00000  0.75003  1.0000
  Fe  Fe9       1.0  1.00000  0.32600  0.75003  1.0000
  Fe  Fe10      1.0  0.65934  0.99267  0.91670  1.0000
  Fe  Fe11      1.0  0.00733  0.66667  0.91670  1.0000
  Fe  Fe12      1.0  0.99267  0.65934  0.58330  1.0000
  Fe  Fe13      1.0  0.33333  0.34066  0.91670  1.0000
  Fe  Fe14      1.0  0.34066  0.33333  0.58330  1.0000
  Fe  Fe15      1.0  0.66667  0.00733  0.58330  1.0000
  Fe  Fe16      1.0  0.32600  0.32601  0.24997  1.0000
  Fe  Fe17      1.0  0.67399  1.00000  0.24997  1.0000
  Fe  Fe18      1.0  0.00000  0.67400  0.24997  1.0000
  Fe  Fe19      1.0  0.00000  0.00000  0.00000  1.0000
  Fe  Fe20      1.0  0.00000  0.00000  0.50000  1.0000
  Fe  Fe21      1.0  0.66667  0.33333  0.33333  1.0000
  Fe  Fe22      1.0  0.66667  0.33333  0.83333  1.0000
  Fe  Fe23      1.0  0.33333  0.66667  0.66667  1.0000
  Fe  Fe24      1.0  0.33333  0.66667  0.16667  1.0000
  Fe  Fe25      1.0  0.66670  0.33330  0.16938  1.0000
  Fe  Fe26      1.0  0.33330  0.66670  0.33062  1.0000
  Fe  Fe27      1.0  0.33337  0.66663  0.50271  1.0000
  Fe  Fe28      1.0  0.99997  0.00003  0.66396  1.0000
  Fe  Fe29      1.0  0.00003  0.99997  0.83604  1.0000
  Fe  Fe30      1.0  0.66663  0.33337  0.99729  1.0000
  Fe  Fe31      1.0  0.33330  0.66670  0.83062  1.0000
  Fe  Fe32      1.0  0.66670  0.33330  0.66938  1.0000
  Fe  Fe33      1.0  0.66663  0.33337  0.49729  1.0000
  Fe  Fe34      1.0  0.00003  0.99997  0.33604  1.0000
  Fe  Fe35      1.0  0.99997  0.00003  0.16396  1.0000
  Fe  Fe36      1.0  0.33337  0.66663  0.00271  1.0000
  O   O1        1.0  0.48904  0.07524  0.10929  1.0000
  O   O2        1.0  0.92476  0.41380  0.10929  1.0000
  O   O3        1.0  0.07524  0.48904  0.39071  1.0000
  O   O4        1.0  0.58620  0.51096  0.10929  1.0000
  O   O5        1.0  0.51096  0.58620  0.39071  1.0000
  O   O6        1.0  0.41380  0.92476  0.39071  1.0000
  O   O7        1.0  0.15571  0.40857  0.44262  1.0000
  O   O8        1.0  0.59143  0.74713  0.44262  1.0000
  O   O9        1.0  0.74191  0.82237  0.72405  1.0000
  O   O10       1.0  0.25287  0.84429  0.44262  1.0000
  O   O11       1.0  0.17763  0.91953  0.72405  1.0000
  O   O12       1.0  0.08047  0.25809  0.72405  1.0000
  O   O13       1.0  0.82237  0.74191  0.77595  1.0000
  O   O14       1.0  0.25809  0.08047  0.77595  1.0000
  O   O15       1.0  0.40857  0.15571  0.05738  1.0000
  O   O16       1.0  0.91953  0.17763  0.77595  1.0000
  O   O17       1.0  0.84429  0.25287  0.05738  1.0000
  O   O18       1.0  0.74713  0.59143  0.05738  1.0000
  O   O19       1.0  0.51096  0.92476  0.89071  1.0000
  O   O20       1.0  0.07524  0.58620  0.89071  1.0000
  O   O21       1.0  0.92476  0.51096  0.60929  1.0000
  O   O22       1.0  0.41380  0.48904  0.89071  1.0000
  O   O23       1.0  0.48904  0.41380  0.60929  1.0000
  O   O24       1.0  0.58620  0.07524  0.60929  1.0000
  O   O25       1.0  0.84429  0.59143  0.55738  1.0000
  O   O26       1.0  0.40857  0.25287  0.55738  1.0000
  O   O27       1.0  0.25809  0.17763  0.27595  1.0000
  O   O28       1.0  0.74713  0.15571  0.55738  1.0000
  O   O29       1.0  0.82237  0.08047  0.27595  1.0000
  O   O30       1.0  0.91953  0.74191  0.27595  1.0000
  O   O31       1.0  0.17763  0.25809  0.22405  1.0000
  O   O32       1.0  0.74191  0.91953  0.22405  1.0000
  O   O33       1.0  0.59143  0.84429  0.94262  1.0000
  O   O34       1.0  0.08047  0.82237  0.22405  1.0000
  O   O35       1.0  0.15571  0.74713  0.94262  1.0000
  O   O36       1.0  0.25287  0.40857  0.94262  1.0000
  O   O37       1.0  0.20262  0.93670  0.05423  1.0000
  O   O38       1.0  0.06330  0.26592  0.05423  1.0000
  O   O39       1.0  0.93670  0.20262  0.44577  1.0000
  O   O40       1.0  0.73408  0.79738  0.05423  1.0000
  O   O41       1.0  0.79738  0.73408  0.44577  1.0000
  O   O42       1.0  0.26592  0.06330  0.44577  1.0000
  O   O43       1.0  0.86929  0.27003  0.38757  1.0000
  O   O44       1.0  0.72997  0.59925  0.38757  1.0000
  O   O45       1.0  0.60337  0.53595  0.77910  1.0000
  O   O46       1.0  0.40075  0.13071  0.38757  1.0000
  O   O47       1.0  0.46405  0.06741  0.77910  1.0000
  O   O48       1.0  0.93259  0.39663  0.77910  1.0000
  O   O49       1.0  0.53595  0.60337  0.72090  1.0000
  O   O50       1.0  0.39663  0.93259  0.72090  1.0000
  O   O51       1.0  0.27003  0.86929  0.11243  1.0000
  O   O52       1.0  0.06741  0.46405  0.72090  1.0000
  O   O53       1.0  0.13071  0.40075  0.11243  1.0000
  O   O54       1.0  0.59925  0.72997  0.11243  1.0000
  O   O55       1.0  0.79738  0.06330  0.94577  1.0000
  O   O56       1.0  0.93670  0.73408  0.94577  1.0000
  O   O57       1.0  0.06330  0.79738  0.55423  1.0000
  O   O58       1.0  0.26592  0.20262  0.94577  1.0000
  O   O59       1.0  0.20262  0.26592  0.55423  1.0000
  O   O60       1.0  0.73408  0.93670  0.55423  1.0000
  O   O61       1.0  0.13071  0.72997  0.61243  1.0000
  O   O62       1.0  0.27003  0.40075  0.61243  1.0000
  O   O63       1.0  0.39663  0.46405  0.22090  1.0000
  O   O64       1.0  0.59925  0.86929  0.61243  1.0000
  O   O65       1.0  0.53595  0.93259  0.22090  1.0000
  O   O66       1.0  0.06741  0.60337  0.22090  1.0000
  O   O67       1.0  0.46405  0.39663  0.27910  1.0000
  O   O68       1.0  0.60337  0.06741  0.27910  1.0000
  O   O69       1.0  0.72997  0.13071  0.88757  1.0000
  O   O70       1.0  0.93259  0.53595  0.27910  1.0000
  O   O71       1.0  0.86929  0.59925  0.88757  1.0000
  O   O72       1.0  0.40075  0.27003  0.88757  1.0000
  O   O73       1.0  0.41922  0.94148  0.05488  1.0000
  O   O74       1.0  0.05852  0.47774  0.05488  1.0000
  O   O75       1.0  0.94148  0.41922  0.44512  1.0000
  O   O76       1.0  0.52226  0.58078  0.05488  1.0000
  O   O77       1.0  0.58078  0.52226  0.44512  1.0000
  O   O78       1.0  0.47774  0.05852  0.44512  1.0000
  O   O79       1.0  0.08589  0.27481  0.38821  1.0000
  O   O80       1.0  0.72519  0.81107  0.38821  1.0000
  O   O81       1.0  0.60815  0.75255  0.77845  1.0000
  O   O82       1.0  0.18893  0.91411  0.38821  1.0000
  O   O83       1.0  0.24745  0.85559  0.77845  1.0000
  O   O84       1.0  0.14441  0.39185  0.77845  1.0000
  O   O85       1.0  0.75255  0.60815  0.72155  1.0000
  O   O86       1.0  0.39185  0.14441  0.72155  1.0000
  O   O87       1.0  0.27481  0.08589  0.11179  1.0000
  O   O88       1.0  0.85559  0.24745  0.72155  1.0000
  O   O89       1.0  0.91411  0.18893  0.11179  1.0000
  O   O90       1.0  0.81107  0.72519  0.11179  1.0000
  O   O91       1.0  0.58078  0.05852  0.94512  1.0000
  O   O92       1.0  0.94148  0.52226  0.94512  1.0000
  O   O93       1.0  0.05852  0.58078  0.55488  1.0000
  O   O94       1.0  0.47774  0.41922  0.94512  1.0000
  O   O95       1.0  0.41922  0.47774  0.55488  1.0000
  O   O96       1.0  0.52226  0.94148  0.55488  1.0000
  O   O97       1.0  0.91411  0.72519  0.61179  1.0000
  O   O98       1.0  0.27481  0.18893  0.61179  1.0000
  O   O99       1.0  0.39185  0.24745  0.22155  1.0000
  O   O100      1.0  0.81107  0.08589  0.61179  1.0000
  O   O101      1.0  0.75255  0.14441  0.22155  1.0000
  O   O102      1.0  0.85559  0.60815  0.22155  1.0000
  O   O103      1.0  0.24745  0.39185  0.27845  1.0000
  O   O104      1.0  0.60815  0.85559  0.27845  1.0000
  O   O105      1.0  0.72519  0.91411  0.88821  1.0000
  O   O106      1.0  0.14441  0.75255  0.27845  1.0000
  O   O107      1.0  0.08589  0.81107  0.88821  1.0000
  O   O108      1.0  0.18893  0.27481  0.88821  1.0000
  O   O109      1.0  0.06701  0.93261  0.02713  1.0000
  O   O110      1.0  0.06739  0.13440  0.02713  1.0000
  O   O111      1.0  0.93261  0.06701  0.47287  1.0000
  O   O112      1.0  0.86560  0.93299  0.02713  1.0000
  O   O113      1.0  0.93299  0.86560  0.47287  1.0000
  O   O114      1.0  0.13440  0.06739  0.47287  1.0000
  O   O115      1.0  0.73368  0.26594  0.36046  1.0000
  O   O116      1.0  0.73406  0.46773  0.36046  1.0000
  O   O117      1.0  0.59928  0.40034  0.80621  1.0000
  O   O118      1.0  0.53227  0.26632  0.36046  1.0000
  O   O119      1.0  0.59966  0.19893  0.80621  1.0000
  O   O120      1.0  0.80107  0.40072  0.80621  1.0000
  O   O121      1.0  0.40034  0.59928  0.69379  1.0000
  O   O122      1.0  0.40072  0.80107  0.69379  1.0000
  O   O123      1.0  0.26594  0.73368  0.13954  1.0000
  O   O124      1.0  0.19893  0.59966  0.69379  1.0000
  O   O125      1.0  0.26632  0.53227  0.13954  1.0000
  O   O126      1.0  0.46773  0.73406  0.13954  1.0000
  O   O127      1.0  0.93299  0.06739  0.97288  1.0000
  O   O128      1.0  0.93261  0.86560  0.97288  1.0000
  O   O129      1.0  0.06739  0.93299  0.52712  1.0000
  O   O130      1.0  0.13440  0.06701  0.97288  1.0000
  O   O131      1.0  0.06701  0.13440  0.52712  1.0000
  O   O132      1.0  0.86560  0.93261  0.52712  1.0000
  O   O133      1.0  0.26632  0.73406  0.63954  1.0000
  O   O134      1.0  0.26594  0.53227  0.63954  1.0000
  O   O135      1.0  0.40072  0.59966  0.19379  1.0000
  O   O136      1.0  0.46773  0.73368  0.63954  1.0000
  O   O137      1.0  0.40034  0.80107  0.19379  1.0000
  O   O138      1.0  0.19893  0.59928  0.19379  1.0000
  O   O139      1.0  0.59966  0.40072  0.30621  1.0000
  O   O140      1.0  0.59928  0.19893  0.30621  1.0000
  O   O141      1.0  0.73406  0.26632  0.86046  1.0000
  O   O142      1.0  0.80107  0.40034  0.30621  1.0000
  O   O143      1.0  0.73368  0.46773  0.86046  1.0000
  O   O144      1.0  0.53227  0.26594  0.86046  1.0000
  O   O145      1.0  0.41034  0.80124  0.02900  1.0000
  O   O146      1.0  0.19876  0.60910  0.02900  1.0000
  O   O147      1.0  0.80124  0.41034  0.47100  1.0000
  O   O148      1.0  0.39090  0.58966  0.02900  1.0000
  O   O149      1.0  0.58966  0.39090  0.47100  1.0000
  O   O150      1.0  0.60910  0.19876  0.47100  1.0000
  O   O151      1.0  0.07701  0.13457  0.36233  1.0000
  O   O152      1.0  0.86543  0.94243  0.36233  1.0000
  O   O153      1.0  0.46791  0.74367  0.80434  1.0000
  O   O154      1.0  0.05757  0.92299  0.36233  1.0000
  O   O155      1.0  0.25633  0.72423  0.80434  1.0000
  O   O156      1.0  0.27577  0.53209  0.80434  1.0000
  O   O157      1.0  0.74367  0.46791  0.69566  1.0000
  O   O158      1.0  0.53209  0.27577  0.69566  1.0000
  O   O159      1.0  0.13457  0.07701  0.13767  1.0000
  O   O160      1.0  0.72423  0.25633  0.69566  1.0000
  O   O161      1.0  0.92299  0.05757  0.13767  1.0000
  O   O162      1.0  0.94243  0.86543  0.13767  1.0000
  O   O163      1.0  0.58966  0.19876  0.97100  1.0000
  O   O164      1.0  0.80124  0.39090  0.97100  1.0000
  O   O165      1.0  0.19876  0.58966  0.52900  1.0000
  O   O166      1.0  0.60910  0.41034  0.97100  1.0000
  O   O167      1.0  0.41034  0.60910  0.52900  1.0000
  O   O168      1.0  0.39090  0.80124  0.52900  1.0000
  O   O169      1.0  0.92299  0.86543  0.63767  1.0000
  O   O170      1.0  0.13457  0.05757  0.63767  1.0000
  O   O171      1.0  0.53209  0.25633  0.19566  1.0000
  O   O172      1.0  0.94243  0.07701  0.63767  1.0000
  O   O173      1.0  0.74367  0.27577  0.19566  1.0000
  O   O174      1.0  0.72423  0.46791  0.19566  1.0000
  O   O175      1.0  0.25633  0.53209  0.30434  1.0000
  O   O176      1.0  0.46791  0.72423  0.30434  1.0000
  O   O177      1.0  0.86543  0.92299  0.86233  1.0000
  O   O178      1.0  0.27577  0.74367  0.30434  1.0000
  O   O179      1.0  0.07701  0.94243  0.86233  1.0000
  O   O180      1.0  0.05757  0.13457  0.86233  1.0000
  O   O181      1.0  0.61306  0.20170  0.14073  1.0000
  O   O182      1.0  0.79830  0.41136  0.14073  1.0000
  O   O183      1.0  0.20170  0.61306  0.35927  1.0000
  O   O184      1.0  0.58864  0.38694  0.14073  1.0000
  O   O185      1.0  0.38694  0.58864  0.35927  1.0000
  O   O186      1.0  0.41136  0.79830  0.35927  1.0000
  O   O187      1.0  0.27973  0.53503  0.47407  1.0000
  O   O188      1.0  0.46497  0.74469  0.47407  1.0000
  O   O189      1.0  0.86837  0.94639  0.69260  1.0000
  O   O190      1.0  0.25531  0.72027  0.47407  1.0000
  O   O191      1.0  0.05361  0.92197  0.69260  1.0000
  O   O192      1.0  0.07803  0.13163  0.69260  1.0000
  O   O193      1.0  0.94639  0.86837  0.80740  1.0000
  O   O194      1.0  0.13163  0.07803  0.80740  1.0000
  O   O195      1.0  0.53503  0.27973  0.02593  1.0000
  O   O196      1.0  0.92197  0.05361  0.80740  1.0000
  O   O197      1.0  0.72027  0.25531  0.02593  1.0000
  O   O198      1.0  0.74469  0.46497  0.02593  1.0000
  O   O199      1.0  0.38694  0.79830  0.85927  1.0000
  O   O200      1.0  0.20170  0.58864  0.85927  1.0000
  O   O201      1.0  0.79830  0.38694  0.64073  1.0000
  O   O202      1.0  0.41136  0.61306  0.85927  1.0000
  O   O203      1.0  0.61306  0.41136  0.64073  1.0000
  O   O204      1.0  0.58864  0.20170  0.64073  1.0000
  O   O205      1.0  0.72027  0.46497  0.52593  1.0000
  O   O206      1.0  0.53503  0.25531  0.52593  1.0000
  O   O207      1.0  0.13163  0.05361  0.30740  1.0000
  O   O208      1.0  0.74469  0.27973  0.52593  1.0000
  O   O209      1.0  0.94639  0.07803  0.30740  1.0000
  O   O210      1.0  0.92197  0.86837  0.30740  1.0000
  O   O211      1.0  0.05361  0.13163  0.19260  1.0000
  O   O212      1.0  0.86837  0.92197  0.19260  1.0000
  O   O213      1.0  0.46497  0.72027  0.97407  1.0000
  O   O214      1.0  0.07803  0.94639  0.19260  1.0000
  O   O215      1.0  0.27973  0.74469  0.97407  1.0000
  O   O216      1.0  0.25531  0.53503  0.97407  1.0000
  C   C1        1.0  0.51809  0.14947  0.12949  1.0000
  C   C2        1.0  0.85053  0.36862  0.12949  1.0000
  C   C3        1.0  0.14947  0.51809  0.37051  1.0000
  C   C4        1.0  0.63138  0.48191  0.12949  1.0000
  C   C5        1.0  0.48191  0.63138  0.37051  1.0000
  C   C6        1.0  0.36862  0.85053  0.37051  1.0000
  C   C7        1.0  0.18476  0.48280  0.46283  1.0000
  C   C8        1.0  0.51720  0.70195  0.46283  1.0000
  C   C9        1.0  0.81614  0.85142  0.70384  1.0000
  C   C10       1.0  0.29805  0.81524  0.46283  1.0000
  C   C11       1.0  0.14858  0.96471  0.70384  1.0000
  C   C12       1.0  0.03529  0.18386  0.70384  1.0000
  C   C13       1.0  0.85142  0.81614  0.79616  1.0000
  C   C14       1.0  0.18386  0.03529  0.79616  1.0000
  C   C15       1.0  0.48280  0.18476  0.03717  1.0000
  C   C16       1.0  0.96471  0.14858  0.79616  1.0000
  C   C17       1.0  0.81524  0.29805  0.03717  1.0000
  C   C18       1.0  0.70195  0.51720  0.03717  1.0000
  C   C19       1.0  0.48191  0.85053  0.87051  1.0000
  C   C20       1.0  0.14947  0.63138  0.87051  1.0000
  C   C21       1.0  0.85053  0.48191  0.62949  1.0000
  C   C22       1.0  0.36862  0.51809  0.87051  1.0000
  C   C23       1.0  0.51809  0.36862  0.62949  1.0000
  C   C24       1.0  0.63138  0.14947  0.62949  1.0000
  C   C25       1.0  0.81524  0.51720  0.53717  1.0000
  C   C26       1.0  0.48280  0.29805  0.53717  1.0000
  C   C27       1.0  0.18386  0.14858  0.29616  1.0000
  C   C28       1.0  0.70195  0.18476  0.53717  1.0000
  C   C29       1.0  0.85142  0.03529  0.29616  1.0000
  C   C30       1.0  0.96471  0.81614  0.29616  1.0000
  C   C31       1.0  0.14858  0.18386  0.20384  1.0000
  C   C32       1.0  0.81614  0.96471  0.20384  1.0000
  C   C33       1.0  0.51720  0.81524  0.96283  1.0000
  C   C34       1.0  0.03529  0.85142  0.20384  1.0000
  C   C35       1.0  0.18476  0.70195  0.96283  1.0000
  C   C36       1.0  0.29805  0.48280  0.96283  1.0000
  C   C37       1.0  0.36734  0.85236  0.04122  1.0000
  C   C38       1.0  0.14764  0.51498  0.04122  1.0000
  C   C39       1.0  0.85236  0.36734  0.45878  1.0000
  C   C40       1.0  0.48502  0.63266  0.04122  1.0000
  C   C41       1.0  0.63266  0.48502  0.45878  1.0000
  C   C42       1.0  0.51498  0.14764  0.45878  1.0000
  C   C43       1.0  0.03401  0.18569  0.37456  1.0000
  C   C44       1.0  0.81431  0.84831  0.37456  1.0000
  C   C45       1.0  0.51903  0.70067  0.79211  1.0000
  C   C46       1.0  0.15169  0.96599  0.37456  1.0000
  C   C47       1.0  0.29933  0.81835  0.79211  1.0000
  C   C48       1.0  0.18165  0.48097  0.79211  1.0000
  C   C49       1.0  0.70067  0.51903  0.70789  1.0000
  C   C50       1.0  0.48097  0.18165  0.70789  1.0000
  C   C51       1.0  0.18569  0.03401  0.12544  1.0000
  C   C52       1.0  0.81835  0.29933  0.70789  1.0000
  C   C53       1.0  0.96599  0.15169  0.12544  1.0000
  C   C54       1.0  0.84831  0.81431  0.12544  1.0000
  C   C55       1.0  0.63266  0.14764  0.95878  1.0000
  C   C56       1.0  0.85236  0.48502  0.95878  1.0000
  C   C57       1.0  0.14764  0.63266  0.54122  1.0000
  C   C58       1.0  0.51498  0.36734  0.95878  1.0000
  C   C59       1.0  0.36734  0.51498  0.54122  1.0000
  C   C60       1.0  0.48502  0.85236  0.54122  1.0000
  C   C61       1.0  0.96599  0.81431  0.62544  1.0000
  C   C62       1.0  0.18569  0.15169  0.62544  1.0000
  C   C63       1.0  0.48097  0.29933  0.20789  1.0000
  C   C64       1.0  0.84831  0.03401  0.62544  1.0000
  C   C65       1.0  0.70067  0.18165  0.20789  1.0000
  C   C66       1.0  0.81835  0.51903  0.20789  1.0000
  C   C67       1.0  0.29933  0.48097  0.29211  1.0000
  C   C68       1.0  0.51903  0.81835  0.29211  1.0000
  C   C69       1.0  0.81431  0.96599  0.87456  1.0000
  C   C70       1.0  0.18165  0.70067  0.29211  1.0000
  C   C71       1.0  0.03401  0.84831  0.87456  1.0000
  C   C72       1.0  0.15169  0.18569  0.87456  1.0000
  C   C73       1.0  0.16058  0.98223  0.03957  1.0000
  C   C74       1.0  0.01777  0.17835  0.03957  1.0000
  C   C75       1.0  0.98223  0.16058  0.46043  1.0000
  C   C76       1.0  0.82165  0.83942  0.03957  1.0000
  C   C77       1.0  0.83942  0.82165  0.46043  1.0000
  C   C78       1.0  0.17835  0.01777  0.46043  1.0000
  C   C79       1.0  0.82725  0.31556  0.37290  1.0000
  C   C80       1.0  0.68444  0.51168  0.37290  1.0000
  C   C81       1.0  0.64890  0.49391  0.79376  1.0000
  C   C82       1.0  0.48832  0.17275  0.37290  1.0000
  C   C83       1.0  0.50609  0.15498  0.79376  1.0000
  C   C84       1.0  0.84502  0.35110  0.79376  1.0000
  C   C85       1.0  0.49391  0.64890  0.70624  1.0000
  C   C86       1.0  0.35110  0.84502  0.70624  1.0000
  C   C87       1.0  0.31556  0.82725  0.12710  1.0000
  C   C88       1.0  0.15498  0.50609  0.70624  1.0000
  C   C89       1.0  0.17275  0.48832  0.12710  1.0000
  C   C90       1.0  0.51168  0.68444  0.12710  1.0000
  C   C91       1.0  0.83942  0.01777  0.96043  1.0000
  C   C92       1.0  0.98223  0.82165  0.96043  1.0000
  C   C93       1.0  0.01777  0.83942  0.53957  1.0000
  C   C94       1.0  0.17835  0.16058  0.96043  1.0000
  C   C95       1.0  0.16058  0.17835  0.53957  1.0000
  C   C96       1.0  0.82165  0.98223  0.53957  1.0000
  C   C97       1.0  0.17275  0.68444  0.62710  1.0000
  C   C98       1.0  0.31556  0.48832  0.62710  1.0000
  C   C99       1.0  0.35110  0.50609  0.20624  1.0000
  C   C100      1.0  0.51168  0.82725  0.62710  1.0000
  C   C101      1.0  0.49391  0.84502  0.20624  1.0000
  C   C102      1.0  0.15498  0.64890  0.20624  1.0000
  C   C103      1.0  0.50609  0.35110  0.29376  1.0000
  C   C104      1.0  0.64890  0.15498  0.29376  1.0000
  C   C105      1.0  0.68444  0.17275  0.87290  1.0000
  C   C106      1.0  0.84502  0.49391  0.29376  1.0000
  C   C107      1.0  0.82725  0.51168  0.87290  1.0000
  C   C108      1.0  0.48832  0.31556  0.87290  1.0000
  H   H1        1.0  0.45815  0.17033  0.13817  1.0000
  H   H2        1.0  0.82967  0.28782  0.13817  1.0000
  H   H3        1.0  0.17033  0.45815  0.36183  1.0000
  H   H4        1.0  0.71218  0.54185  0.13817  1.0000
  H   H5        1.0  0.54185  0.71218  0.36183  1.0000
  H   H6        1.0  0.28782  0.82967  0.36183  1.0000
  H   H7        1.0  0.12482  0.50366  0.47150  1.0000
  H   H8        1.0  0.49634  0.62115  0.47150  1.0000
  H   H9        1.0  0.83700  0.79148  0.69516  1.0000
  H   H10       1.0  0.37885  0.87518  0.47150  1.0000
  H   H11       1.0  0.20852  0.04551  0.69516  1.0000
  H   H12       1.0  0.95449  0.16300  0.69516  1.0000
  H   H13       1.0  0.79148  0.83700  0.80484  1.0000
  H   H14       1.0  0.16300  0.95449  0.80484  1.0000
  H   H15       1.0  0.50366  0.12482  0.02850  1.0000
  H   H16       1.0  0.04551  0.20852  0.80484  1.0000
  H   H17       1.0  0.87518  0.37885  0.02850  1.0000
  H   H18       1.0  0.62115  0.49634  0.02850  1.0000
  H   H19       1.0  0.54185  0.82967  0.86183  1.0000
  H   H20       1.0  0.17033  0.71218  0.86183  1.0000
  H   H21       1.0  0.82967  0.54185  0.63817  1.0000
  H   H22       1.0  0.28782  0.45815  0.86183  1.0000
  H   H23       1.0  0.45815  0.28782  0.63817  1.0000
  H   H24       1.0  0.71218  0.17033  0.63817  1.0000
  H   H25       1.0  0.87518  0.49634  0.52850  1.0000
  H   H26       1.0  0.50366  0.37885  0.52850  1.0000
  H   H27       1.0  0.16300  0.20852  0.30484  1.0000
  H   H28       1.0  0.62115  0.12482  0.52850  1.0000
  H   H29       1.0  0.79148  0.95449  0.30484  1.0000
  H   H30       1.0  0.04551  0.83700  0.30484  1.0000
  H   H31       1.0  0.20852  0.16300  0.19516  1.0000
  H   H32       1.0  0.83700  0.04551  0.19516  1.0000
  H   H33       1.0  0.49634  0.87518  0.97150  1.0000
  H   H34       1.0  0.95449  0.79148  0.19516  1.0000
  H   H35       1.0  0.12482  0.62115  0.97150  1.0000
  H   H36       1.0  0.37885  0.50366  0.97150  1.0000
  H   H37       1.0  0.27887  0.81480  0.03954  1.0000
  H   H38       1.0  0.18520  0.46407  0.03954  1.0000
  H   H39       1.0  0.81480  0.27887  0.46046  1.0000
  H   H40       1.0  0.53593  0.72113  0.03954  1.0000
  H   H41       1.0  0.72113  0.53593  0.46046  1.0000
  H   H42       1.0  0.46407  0.18520  0.46046  1.0000
  H   H43       1.0  0.94554  0.14813  0.37287  1.0000
  H   H44       1.0  0.85187  0.79740  0.37287  1.0000
  H   H45       1.0  0.48147  0.61220  0.79379  1.0000
  H   H46       1.0  0.20260  0.05446  0.37287  1.0000
  H   H47       1.0  0.38780  0.86926  0.79379  1.0000
  H   H48       1.0  0.13074  0.51853  0.79379  1.0000
  H   H49       1.0  0.61220  0.48147  0.70621  1.0000
  H   H50       1.0  0.51853  0.13074  0.70621  1.0000
  H   H51       1.0  0.14813  0.94554  0.12713  1.0000
  H   H52       1.0  0.86926  0.38780  0.70621  1.0000
  H   H53       1.0  0.05446  0.20260  0.12713  1.0000
  H   H54       1.0  0.79740  0.85187  0.12713  1.0000
  H   H55       1.0  0.72113  0.18520  0.96046  1.0000
  H   H56       1.0  0.81480  0.53593  0.96046  1.0000
  H   H57       1.0  0.18520  0.72113  0.53954  1.0000
  H   H58       1.0  0.46407  0.27887  0.96046  1.0000
  H   H59       1.0  0.27887  0.46407  0.53954  1.0000
  H   H60       1.0  0.53593  0.81480  0.53954  1.0000
  H   H61       1.0  0.05446  0.85187  0.62713  1.0000
  H   H62       1.0  0.14813  0.20260  0.62713  1.0000
  H   H63       1.0  0.51853  0.38780  0.20621  1.0000
  H   H64       1.0  0.79740  0.94554  0.62713  1.0000
  H   H65       1.0  0.61220  0.13074  0.20621  1.0000
  H   H66       1.0  0.86926  0.48147  0.20621  1.0000
  H   H67       1.0  0.38780  0.51853  0.29379  1.0000
  H   H68       1.0  0.48147  0.86926  0.29379  1.0000
  H   H69       1.0  0.85187  0.05446  0.87287  1.0000
  H   H70       1.0  0.13074  0.61220  0.29379  1.0000
  H   H71       1.0  0.94554  0.79740  0.87287  1.0000
  H   H72       1.0  0.20260  0.14813  0.87287  1.0000
  H   H73       1.0  0.20634  0.07060  0.03712  1.0000
  H   H74       1.0  0.92940  0.13574  0.03712  1.0000
  H   H75       1.0  0.07060  0.20634  0.46288  1.0000
  H   H76       1.0  0.86426  0.79366  0.03712  1.0000
  H   H77       1.0  0.79366  0.86426  0.46288  1.0000
  H   H78       1.0  0.13574  0.92940  0.46288  1.0000
  H   H79       1.0  0.87301  0.40393  0.37045  1.0000
  H   H80       1.0  0.59607  0.46907  0.37045  1.0000
  H   H81       1.0  0.73727  0.53967  0.79621  1.0000
  H   H82       1.0  0.53093  0.12699  0.37045  1.0000
  H   H83       1.0  0.46033  0.19759  0.79621  1.0000
  H   H84       1.0  0.80241  0.26273  0.79621  1.0000
  H   H85       1.0  0.53967  0.73727  0.70379  1.0000
  H   H86       1.0  0.26273  0.80241  0.70379  1.0000
  H   H87       1.0  0.40393  0.87301  0.12955  1.0000
  H   H88       1.0  0.19759  0.46033  0.70379  1.0000
  H   H89       1.0  0.12699  0.53093  0.12955  1.0000
  H   H90       1.0  0.46907  0.59607  0.12955  1.0000
  H   H91       1.0  0.79366  0.92940  0.96288  1.0000
  H   H92       1.0  0.07060  0.86426  0.96288  1.0000
  H   H93       1.0  0.92940  0.79366  0.53712  1.0000
  H   H94       1.0  0.13574  0.20634  0.96288  1.0000
  H   H95       1.0  0.20634  0.13574  0.53712  1.0000
  H   H96       1.0  0.86426  0.07060  0.53712  1.0000
  H   H97       1.0  0.12699  0.59607  0.62955  1.0000
  H   H98       1.0  0.40393  0.53093  0.62955  1.0000
  H   H99       1.0  0.26273  0.46033  0.20379  1.0000
  H   H100      1.0  0.46907  0.87301  0.62955  1.0000
  H   H101      1.0  0.53967  0.80241  0.20379  1.0000
  H   H102      1.0  0.19759  0.73727  0.20379  1.0000
  H   H103      1.0  0.46033  0.26273  0.29621  1.0000
  H   H104      1.0  0.73727  0.19759  0.29621  1.0000
  H   H105      1.0  0.59607  0.12699  0.87045  1.0000
  H   H106      1.0  0.80241  0.53967  0.29621  1.0000
  H   H107      1.0  0.87301  0.46907  0.87045  1.0000
  H   H108      1.0  0.53093  0.40393  0.87045  1.0000
