data_image0
_chemical_formula_structural       Fe24O68C4H4O8C4H4O12C4H4O4C4H4O24C4H4C4H4C4H4O8C4H4O8C4H4C4H4O4C4H4O4C4H4C4H4C4H4C4H4C4H4O4C4H4C4H4
_chemical_formula_sum              "Fe24 O144 C72 H72"
_cell_length_a       8.306
_cell_length_b       14.022
_cell_length_c       35.556
_cell_angle_alpha    90
_cell_angle_beta     91.3
_cell_angle_gamma    90

_space_group_name_H-M_alt    "P 1"
_space_group_IT_number       1

loop_
  _space_group_symop_operation_xyz
  'x, y, z'

loop_
  _atom_site_type_symbol
  _atom_site_label
  _atom_site_symmetry_multiplicity
  _atom_site_fract_x
  _atom_site_fract_y
  _atom_site_fract_z
  _atom_site_occupancy
  Fe  Fe1       1.0  0.18200  0.26420  0.33293  1.0000
  Fe  Fe2       1.0  0.81800  0.76420  0.16707  1.0000
  Fe  Fe3       1.0  0.81800  0.73580  0.66707  1.0000
  Fe  Fe4       1.0  0.18200  0.23580  0.83293  1.0000
  Fe  Fe5       1.0  0.23090  0.24712  0.49678  1.0000
  Fe  Fe6       1.0  0.76910  0.74712  0.00322  1.0000
  Fe  Fe7       1.0  0.76910  0.75288  0.50322  1.0000
  Fe  Fe8       1.0  0.23090  0.25288  0.99678  1.0000
  Fe  Fe9       1.0  0.73950  0.43420  0.25602  1.0000
  Fe  Fe10      1.0  0.26050  0.93420  0.24398  1.0000
  Fe  Fe11      1.0  0.26050  0.56580  0.74398  1.0000
  Fe  Fe12      1.0  0.73950  0.06580  0.75602  1.0000
  Fe  Fe13      1.0  0.72090  0.09600  0.40548  1.0000
  Fe  Fe14      1.0  0.27910  0.59600  0.09452  1.0000
  Fe  Fe15      1.0  0.27910  0.90400  0.59452  1.0000
  Fe  Fe16      1.0  0.72090  0.40400  0.90548  1.0000
  Fe  Fe17      1.0  0.26850  0.59330  0.41071  1.0000
  Fe  Fe18      1.0  0.73150  0.09330  0.08929  1.0000
  Fe  Fe19      1.0  0.73150  0.40670  0.58929  1.0000
  Fe  Fe20      1.0  0.26850  0.90670  0.91071  1.0000
  Fe  Fe21      1.0  0.74210  0.78820  0.32556  1.0000
  Fe  Fe22      1.0  0.25790  0.28820  0.17444  1.0000
  Fe  Fe23      1.0  0.25790  0.21180  0.67444  1.0000
  Fe  Fe24      1.0  0.74210  0.71180  0.82556  1.0000
  O   O1        1.0  0.30100  0.35230  0.52980  1.0000
  O   O2        1.0  0.69900  0.85230  0.97020  1.0000
  O   O3        1.0  0.69900  0.64770  0.47020  1.0000
  O   O4        1.0  0.30100  0.14770  0.02980  1.0000
  O   O5        1.0  0.12500  0.35220  0.46530  1.0000
  O   O6        1.0  0.87500  0.85220  0.03470  1.0000
  O   O7        1.0  0.87500  0.64780  0.53470  1.0000
  O   O8        1.0  0.12500  0.14780  0.96530  1.0000
  O   O9        1.0  0.09700  0.36950  0.30470  1.0000
  O   O10       1.0  0.90300  0.86950  0.19530  1.0000
  O   O11       1.0  0.90300  0.63050  0.69530  1.0000
  O   O12       1.0  0.09700  0.13050  0.80470  1.0000
  O   O13       1.0  0.37600  0.94780  0.29940  1.0000
  O   O14       1.0  0.62400  0.44780  0.20060  1.0000
  O   O15       1.0  0.62400  0.05220  0.70060  1.0000
  O   O16       1.0  0.37600  0.55220  0.79940  1.0000
  O   O17       1.0  0.38000  0.26220  0.30300  1.0000
  O   O18       1.0  0.62000  0.76220  0.19700  1.0000
  O   O19       1.0  0.62000  0.73780  0.69700  1.0000
  O   O20       1.0  0.38000  0.23780  0.80300  1.0000
  O   O21       1.0  0.26400  0.36220  0.36870  1.0000
  O   O22       1.0  0.73600  0.86220  0.13130  1.0000
  O   O23       1.0  0.73600  0.63780  0.63130  1.0000
  O   O24       1.0  0.26400  0.13780  0.86870  1.0000
  O   O25       1.0  0.13400  0.49050  0.44010  1.0000
  O   O26       1.0  0.86600  0.99050  0.05990  1.0000
  O   O27       1.0  0.86600  0.50950  0.55990  1.0000
  O   O28       1.0  0.13400  0.00950  0.94010  1.0000
  O   O29       1.0  0.59500  0.68690  0.30010  1.0000
  O   O30       1.0  0.40500  0.18690  0.19990  1.0000
  O   O31       1.0  0.40500  0.31310  0.69990  1.0000
  O   O32       1.0  0.59500  0.81310  0.80010  1.0000
  O   O33       1.0  0.89200  0.76840  0.28320  1.0000
  O   O34       1.0  0.10800  0.26840  0.21680  1.0000
  O   O35       1.0  0.10800  0.23160  0.71680  1.0000
  O   O36       1.0  0.89200  0.73160  0.78320  1.0000
  O   O37       1.0  0.26600  0.15690  0.36370  1.0000
  O   O38       1.0  0.73400  0.65690  0.13630  1.0000
  O   O39       1.0  0.73400  0.84310  0.63630  1.0000
  O   O40       1.0  0.26600  0.34310  0.86370  1.0000
  O   O41       1.0  0.03900  0.23580  0.52730  1.0000
  O   O42       1.0  0.96100  0.73580  0.97270  1.0000
  O   O43       1.0  0.96100  0.76420  0.47270  1.0000
  O   O44       1.0  0.03900  0.26420  0.02730  1.0000
  O   O45       1.0  0.43200  0.26210  0.46710  1.0000
  O   O46       1.0  0.56800  0.76210  0.03290  1.0000
  O   O47       1.0  0.56800  0.73790  0.53290  1.0000
  O   O48       1.0  0.43200  0.23790  0.96710  1.0000
  O   O49       1.0  0.86400  0.45040  0.31040  1.0000
  O   O50       1.0  0.13600  0.95040  0.18960  1.0000
  O   O51       1.0  0.13600  0.54960  0.68960  1.0000
  O   O52       1.0  0.86400  0.04960  0.81040  1.0000
  O   O53       1.0  0.38400  0.50000  0.37430  1.0000
  O   O54       1.0  0.61600  0.00000  0.12570  1.0000
  O   O55       1.0  0.61600  0.50000  0.62570  1.0000
  O   O56       1.0  0.38400  0.00000  0.87430  1.0000
  O   O57       1.0  0.58300  0.79360  0.36800  1.0000
  O   O58       1.0  0.41700  0.29360  0.13200  1.0000
  O   O59       1.0  0.41700  0.20640  0.63200  1.0000
  O   O60       1.0  0.58300  0.70640  0.86800  1.0000
  O   O61       1.0  0.36600  0.01420  0.55840  1.0000
  O   O62       1.0  0.63400  0.51420  0.94160  1.0000
  O   O63       1.0  0.63400  0.98580  0.44160  1.0000
  O   O64       1.0  0.36600  0.48580  0.05840  1.0000
  O   O65       1.0  0.58000  0.54000  0.27750  1.0000
  O   O66       1.0  0.42000  0.04000  0.22250  1.0000
  O   O67       1.0  0.42000  0.46000  0.72250  1.0000
  O   O68       1.0  0.58000  0.96000  0.77750  1.0000
  C   C1        1.0  0.96500  0.83640  0.27270  1.0000
  C   C2        1.0  0.03500  0.33640  0.22730  1.0000
  C   C3        1.0  0.03500  0.16360  0.72730  1.0000
  C   C4        1.0  0.96500  0.66360  0.77270  1.0000
  H   H1        1.0  0.91690  0.89610  0.27100  1.0000
  H   H2        1.0  0.08310  0.39610  0.22900  1.0000
  H   H3        1.0  0.08310  0.10390  0.72900  1.0000
  H   H4        1.0  0.91690  0.60390  0.77100  1.0000
  O   O69       1.0  0.15800  0.14730  0.46360  1.0000
  O   O70       1.0  0.84200  0.64730  0.03640  1.0000
  O   O71       1.0  0.84200  0.85270  0.53640  1.0000
  O   O72       1.0  0.15800  0.35270  0.96360  1.0000
  O   O73       1.0  0.34700  0.15030  0.52920  1.0000
  O   O74       1.0  0.65300  0.65030  0.97080  1.0000
  O   O75       1.0  0.65300  0.84970  0.47080  1.0000
  O   O76       1.0  0.34700  0.34970  0.02920  1.0000
  C   C5        1.0  0.00100  0.42920  0.32060  1.0000
  C   C6        1.0  0.99900  0.92920  0.17940  1.0000
  C   C7        1.0  0.99900  0.57080  0.67940  1.0000
  C   C8        1.0  0.00100  0.07080  0.82060  1.0000
  H   H5        1.0  0.04010  0.45920  0.34230  1.0000
  H   H6        1.0  0.95990  0.95920  0.15770  1.0000
  H   H7        1.0  0.95990  0.54080  0.65770  1.0000
  H   H8        1.0  0.04010  0.04080  0.84230  1.0000
  O   O77       1.0  0.98800  0.26290  0.36480  1.0000
  O   O78       1.0  0.01200  0.76290  0.13520  1.0000
  O   O79       1.0  0.01200  0.73710  0.63520  1.0000
  O   O80       1.0  0.98800  0.23710  0.86480  1.0000
  O   O81       1.0  0.36900  0.71610  0.38820  1.0000
  O   O82       1.0  0.63100  0.21610  0.11180  1.0000
  O   O83       1.0  0.63100  0.28390  0.61180  1.0000
  O   O84       1.0  0.36900  0.78390  0.88820  1.0000
  O   O85       1.0  0.53000  0.43000  0.55380  1.0000
  O   O86       1.0  0.47000  0.93000  0.94620  1.0000
  O   O87       1.0  0.47000  0.57000  0.44620  1.0000
  O   O88       1.0  0.53000  0.07000  0.05380  1.0000
  C   C9        1.0  0.95800  0.30750  0.54140  1.0000
  C   C10       1.0  0.04200  0.80750  0.95860  1.0000
  C   C11       1.0  0.04200  0.69250  0.45860  1.0000
  C   C12       1.0  0.95800  0.19250  0.04140  1.0000
  H   H9        1.0  0.00720  0.36710  0.54230  1.0000
  H   H10       1.0  0.99280  0.86710  0.95770  1.0000
  H   H11       1.0  0.99280  0.63290  0.45770  1.0000
  H   H12       1.0  0.00720  0.13290  0.04230  1.0000
  O   O89       1.0  0.07300  0.60850  0.37960  1.0000
  O   O90       1.0  0.92700  0.10850  0.12040  1.0000
  O   O91       1.0  0.92700  0.39150  0.62040  1.0000
  O   O92       1.0  0.07300  0.89150  0.87960  1.0000
  C   C13       1.0  0.85300  0.24370  0.35110  1.0000
  C   C14       1.0  0.14700  0.74370  0.14890  1.0000
  C   C15       1.0  0.14700  0.75630  0.64890  1.0000
  C   C16       1.0  0.85300  0.25630  0.85110  1.0000
  H   H13       1.0  0.83550  0.25290  0.32540  1.0000
  H   H14       1.0  0.16450  0.75290  0.17460  1.0000
  H   H15       1.0  0.16450  0.74710  0.67460  1.0000
  H   H16       1.0  0.83550  0.24710  0.82540  1.0000
  O   O93       1.0  0.82700  0.30050  0.55300  1.0000
  O   O94       1.0  0.17300  0.80050  0.94700  1.0000
  O   O95       1.0  0.17300  0.69950  0.44700  1.0000
  O   O96       1.0  0.82700  0.19950  0.05300  1.0000
  O   O97       1.0  0.60000  0.32490  0.27710  1.0000
  O   O98       1.0  0.40000  0.82490  0.22290  1.0000
  O   O99       1.0  0.40000  0.67510  0.72290  1.0000
  O   O100      1.0  0.60000  0.17510  0.77710  1.0000
  O   O101      1.0  0.61100  0.88140  0.29950  1.0000
  O   O102      1.0  0.38900  0.38140  0.20050  1.0000
  O   O103      1.0  0.38900  0.11860  0.70050  1.0000
  O   O104      1.0  0.61100  0.61860  0.79950  1.0000
  O   O105      1.0  0.93000  0.08480  0.42870  1.0000
  O   O106      1.0  0.07000  0.58480  0.07130  1.0000
  O   O107      1.0  0.07000  0.91520  0.57130  1.0000
  O   O108      1.0  0.93000  0.41520  0.92870  1.0000
  O   O109      1.0  0.65300  0.20080  0.44410  1.0000
  O   O110      1.0  0.34700  0.70080  0.05590  1.0000
  O   O111      1.0  0.34700  0.79920  0.55590  1.0000
  O   O112      1.0  0.65300  0.29920  0.94410  1.0000
  O   O113      1.0  0.09600  0.04060  0.26520  1.0000
  O   O114      1.0  0.90400  0.54060  0.23480  1.0000
  O   O115      1.0  0.90400  0.95940  0.73480  1.0000
  O   O116      1.0  0.09600  0.45940  0.76520  1.0000
  C   C17       1.0  0.52200  0.19290  0.45780  1.0000
  C   C18       1.0  0.47800  0.69290  0.04220  1.0000
  C   C19       1.0  0.47800  0.80710  0.54220  1.0000
  C   C20       1.0  0.52200  0.30710  0.95780  1.0000
  H   H17       1.0  0.48350  0.13140  0.46190  1.0000
  H   H18       1.0  0.51650  0.63140  0.03810  1.0000
  H   H19       1.0  0.51650  0.86860  0.53810  1.0000
  H   H20       1.0  0.48350  0.36860  0.96190  1.0000
  C   C21       1.0  0.39300  0.41980  0.36220  1.0000
  C   C22       1.0  0.60700  0.91980  0.13780  1.0000
  C   C23       1.0  0.60700  0.58020  0.63780  1.0000
  C   C24       1.0  0.39300  0.08020  0.86220  1.0000
  H   H21       1.0  0.48280  0.39850  0.34930  1.0000
  H   H22       1.0  0.51720  0.89850  0.15070  1.0000
  H   H23       1.0  0.51720  0.60150  0.65070  1.0000
  H   H24       1.0  0.48280  0.10150  0.84930  1.0000
  C   C25       1.0  0.90500  0.96810  0.35320  1.0000
  C   C26       1.0  0.09500  0.46810  0.14680  1.0000
  C   C27       1.0  0.09500  0.03190  0.64680  1.0000
  C   C28       1.0  0.90500  0.53190  0.85320  1.0000
  H   H25       1.0  0.99720  0.00570  0.35250  1.0000
  H   H26       1.0  0.00280  0.50570  0.14750  1.0000
  H   H27       1.0  0.00280  0.99430  0.64750  1.0000
  H   H28       1.0  0.99720  0.49430  0.85250  1.0000
  O   O117      1.0  0.90800  0.88560  0.34430  1.0000
  O   O118      1.0  0.09200  0.38560  0.15570  1.0000
  O   O119      1.0  0.09200  0.11440  0.65570  1.0000
  O   O120      1.0  0.90800  0.61440  0.84430  1.0000
  O   O121      1.0  0.07400  0.16980  0.29880  1.0000
  O   O122      1.0  0.92600  0.66980  0.20120  1.0000
  O   O123      1.0  0.92600  0.83020  0.70120  1.0000
  O   O124      1.0  0.07400  0.33020  0.79880  1.0000
  C   C29       1.0  0.51700  0.72170  0.37520  1.0000
  C   C30       1.0  0.48300  0.22170  0.12480  1.0000
  C   C31       1.0  0.48300  0.27830  0.62480  1.0000
  C   C32       1.0  0.51700  0.77830  0.87520  1.0000
  H   H29       1.0  0.57250  0.66500  0.37140  1.0000
  H   H30       1.0  0.42750  0.16500  0.12860  1.0000
  H   H31       1.0  0.42750  0.33500  0.62860  1.0000
  H   H32       1.0  0.57250  0.83500  0.87140  1.0000
  O   O125      1.0  0.76700  0.00350  0.36410  1.0000
  O   O126      1.0  0.23300  0.50350  0.13590  1.0000
  O   O127      1.0  0.23300  0.99650  0.63590  1.0000
  O   O128      1.0  0.76700  0.49650  0.86410  1.0000
  O   O129      1.0  0.11400  0.82350  0.26370  1.0000
  O   O130      1.0  0.88600  0.32350  0.23630  1.0000
  O   O131      1.0  0.88600  0.17650  0.73630  1.0000
  O   O132      1.0  0.11400  0.67650  0.76370  1.0000
  C   C33       1.0  0.16800  0.10890  0.28290  1.0000
  C   C34       1.0  0.83200  0.60890  0.21710  1.0000
  C   C35       1.0  0.83200  0.89110  0.71710  1.0000
  C   C36       1.0  0.16800  0.39110  0.78290  1.0000
  H   H33       1.0  0.27980  0.11420  0.28420  1.0000
  H   H34       1.0  0.72020  0.61420  0.21580  1.0000
  H   H35       1.0  0.72020  0.88580  0.71580  1.0000
  H   H36       1.0  0.27980  0.38580  0.78420  1.0000
  C   C37       1.0  0.45300  0.32500  0.28450  1.0000
  C   C38       1.0  0.54700  0.82500  0.21550  1.0000
  C   C39       1.0  0.54700  0.67500  0.71550  1.0000
  C   C40       1.0  0.45300  0.17500  0.78450  1.0000
  H   H37       1.0  0.39190  0.37610  0.27550  1.0000
  H   H38       1.0  0.60810  0.87610  0.22450  1.0000
  H   H39       1.0  0.60810  0.62390  0.72450  1.0000
  H   H40       1.0  0.39190  0.12390  0.77550  1.0000
  O   O133      1.0  0.48600  0.07970  0.38970  1.0000
  O   O134      1.0  0.51400  0.57970  0.11030  1.0000
  O   O135      1.0  0.51400  0.92030  0.61030  1.0000
  O   O136      1.0  0.48600  0.42030  0.88970  1.0000
  C   C41       1.0  0.49200  0.92700  0.31620  1.0000
  C   C42       1.0  0.50800  0.42700  0.18380  1.0000
  C   C43       1.0  0.50800  0.07300  0.68380  1.0000
  C   C44       1.0  0.49200  0.57300  0.81620  1.0000
  H   H41       1.0  0.50210  0.94160  0.34160  1.0000
  H   H42       1.0  0.49790  0.44160  0.15840  1.0000
  H   H43       1.0  0.49790  0.05840  0.65840  1.0000
  H   H44       1.0  0.50210  0.55840  0.84160  1.0000
  O   O137      1.0  0.74500  0.21370  0.36950  1.0000
  O   O138      1.0  0.25500  0.71370  0.13050  1.0000
  O   O139      1.0  0.25500  0.78630  0.63050  1.0000
  O   O140      1.0  0.74500  0.28630  0.86950  1.0000
  C   C45       1.0  0.66100  0.60200  0.29760  1.0000
  C   C46       1.0  0.33900  0.10200  0.20240  1.0000
  C   C47       1.0  0.33900  0.39800  0.70240  1.0000
  C   C48       1.0  0.66100  0.89800  0.79760  1.0000
  H   H45       1.0  0.75940  0.58670  0.30930  1.0000
  H   H46       1.0  0.24060  0.08670  0.19070  1.0000
  H   H47       1.0  0.24060  0.41330  0.69070  1.0000
  H   H48       1.0  0.75940  0.91330  0.80930  1.0000
  C   C49       1.0  0.29900  0.08200  0.54520  1.0000
  C   C50       1.0  0.70100  0.58200  0.95480  1.0000
  C   C51       1.0  0.70100  0.91800  0.45480  1.0000
  C   C52       1.0  0.29900  0.41800  0.04520  1.0000
  H   H49       1.0  0.18810  0.08110  0.54800  1.0000
  H   H50       1.0  0.81190  0.58110  0.95200  1.0000
  H   H51       1.0  0.81190  0.91890  0.45200  1.0000
  H   H52       1.0  0.18810  0.41890  0.04800  1.0000
  C   C53       1.0  0.19400  0.41500  0.45130  1.0000
  C   C54       1.0  0.80600  0.91500  0.04870  1.0000
  C   C55       1.0  0.80600  0.58500  0.54870  1.0000
  C   C56       1.0  0.19400  0.08500  0.95130  1.0000
  H   H53       1.0  0.30370  0.40720  0.44830  1.0000
  H   H54       1.0  0.69630  0.90720  0.05170  1.0000
  H   H55       1.0  0.69630  0.59280  0.55170  1.0000
  H   H56       1.0  0.30370  0.09280  0.94830  1.0000
  C   C57       1.0  0.44200  0.14800  0.37740  1.0000
  C   C58       1.0  0.55800  0.64800  0.12260  1.0000
  C   C59       1.0  0.55800  0.85200  0.62260  1.0000
  C   C60       1.0  0.44200  0.35200  0.87740  1.0000
  H   H57       1.0  0.51130  0.19960  0.37530  1.0000
  H   H58       1.0  0.48870  0.69960  0.12470  1.0000
  H   H59       1.0  0.48870  0.80040  0.62470  1.0000
  H   H60       1.0  0.51130  0.30040  0.87530  1.0000
  C   C61       1.0  0.97900  0.68000  0.36240  1.0000
  C   C62       1.0  0.02100  0.18000  0.13760  1.0000
  C   C63       1.0  0.02100  0.32000  0.63760  1.0000
  C   C64       1.0  0.97900  0.82000  0.86240  1.0000
  H   H61       1.0  0.03890  0.73450  0.35710  1.0000
  H   H62       1.0  0.96110  0.23450  0.14290  1.0000
  H   H63       1.0  0.96110  0.26550  0.64290  1.0000
  H   H64       1.0  0.03890  0.76550  0.85710  1.0000
  O   O141      1.0  0.84700  0.68750  0.35340  1.0000
  O   O142      1.0  0.15300  0.18750  0.14660  1.0000
  O   O143      1.0  0.15300  0.31250  0.64660  1.0000
  O   O144      1.0  0.84700  0.81250  0.85340  1.0000
  C   C65       1.0  0.43800  0.36000  0.53650  1.0000
  C   C66       1.0  0.56200  0.86000  0.96350  1.0000
  C   C67       1.0  0.56200  0.64000  0.46350  1.0000
  C   C68       1.0  0.43800  0.14000  0.03650  1.0000
  H   H65       1.0  0.49780  0.30820  0.52850  1.0000
  H   H66       1.0  0.50220  0.80820  0.97150  1.0000
  H   H67       1.0  0.50220  0.69180  0.47150  1.0000
  H   H68       1.0  0.49780  0.19180  0.02850  1.0000
  C   C69       1.0  0.02600  0.15400  0.44390  1.0000
  C   C70       1.0  0.97400  0.65400  0.05610  1.0000
  C   C71       1.0  0.97400  0.84600  0.55610  1.0000
  C   C72       1.0  0.02600  0.34600  0.94390  1.0000
  H   H69       1.0  0.99050  0.21550  0.43950  1.0000
  H   H70       1.0  0.00950  0.71550  0.06050  1.0000
  H   H71       1.0  0.00950  0.78450  0.56050  1.0000
  H   H72       1.0  0.99050  0.28450  0.93950  1.0000
