data_image0
_chemical_formula_structural       Fe6O36C18H18
_chemical_formula_sum              "Fe6 O36 C18 H18"
_cell_length_a       8.0626
_cell_length_b       8.0626
_cell_length_c       21.3349
_cell_angle_alpha    90
_cell_angle_beta     90
_cell_angle_gamma    120

_space_group_name_H-M_alt    "P 1"
_space_group_IT_number       1

loop_
  _space_group_symop_operation_xyz
  'x, y, z'

loop_
  _atom_site_type_symbol
  _atom_site_label
  _atom_site_symmetry_multiplicity
  _atom_site_fract_x
  _atom_site_fract_y
  _atom_site_fract_z
  _atom_site_occupancy
  Fe  Fe1       1.0  0.66667  0.33333  0.33333  1.0000
  Fe  Fe2       1.0  0.33333  0.66667  0.16667  1.0000
  Fe  Fe3       1.0  0.33334  0.66666  0.66666  1.0000
  Fe  Fe4       1.0  1.00000  0.00000  0.50000  1.0000
  Fe  Fe5       1.0  0.00000  1.00000  1.00000  1.0000
  Fe  Fe6       1.0  0.66666  0.33334  0.83334  1.0000
  O   O1        1.0  0.86830  0.30890  0.27809  1.0000
  O   O2        1.0  0.69110  0.55940  0.27809  1.0000
  O   O3        1.0  0.44060  0.13170  0.27809  1.0000
  O   O4        1.0  0.30890  0.86830  0.22191  1.0000
  O   O5        1.0  0.55940  0.69110  0.22191  1.0000
  O   O6        1.0  0.13170  0.44060  0.22191  1.0000
  O   O7        1.0  0.53497  0.64223  0.61142  1.0000
  O   O8        1.0  0.35777  0.89273  0.61142  1.0000
  O   O9        1.0  0.10727  0.46503  0.61142  1.0000
  O   O10       1.0  0.97557  0.20163  0.55524  1.0000
  O   O11       1.0  0.22607  0.02443  0.55524  1.0000
  O   O12       1.0  0.79837  0.77393  0.55524  1.0000
  O   O13       1.0  0.20163  0.97557  0.94476  1.0000
  O   O14       1.0  0.02443  0.22607  0.94476  1.0000
  O   O15       1.0  0.77393  0.79837  0.94476  1.0000
  O   O16       1.0  0.64223  0.53497  0.88858  1.0000
  O   O17       1.0  0.89273  0.35777  0.88858  1.0000
  O   O18       1.0  0.46503  0.10727  0.88858  1.0000
  O   O19       1.0  0.13170  0.69110  0.72191  1.0000
  O   O20       1.0  0.30890  0.44060  0.72191  1.0000
  O   O21       1.0  0.55940  0.86830  0.72191  1.0000
  O   O22       1.0  0.69110  0.13170  0.77809  1.0000
  O   O23       1.0  0.44060  0.30890  0.77809  1.0000
  O   O24       1.0  0.86830  0.55940  0.77809  1.0000
  O   O25       1.0  0.46503  0.35777  0.38858  1.0000
  O   O26       1.0  0.64223  0.10727  0.38858  1.0000
  O   O27       1.0  0.89273  0.53497  0.38858  1.0000
  O   O28       1.0  0.02443  0.79837  0.44476  1.0000
  O   O29       1.0  0.77393  0.97557  0.44476  1.0000
  O   O30       1.0  0.20163  0.22607  0.44476  1.0000
  O   O31       1.0  0.79837  0.02443  0.05524  1.0000
  O   O32       1.0  0.97557  0.77393  0.05524  1.0000
  O   O33       1.0  0.22607  0.20163  0.05524  1.0000
  O   O34       1.0  0.35777  0.46503  0.11142  1.0000
  O   O35       1.0  0.10727  0.64223  0.11142  1.0000
  O   O36       1.0  0.53497  0.89273  0.11142  1.0000
  C   C1        1.0  0.00000  0.44580  0.25000  1.0000
  C   C2        1.0  0.55420  0.55420  0.25000  1.0000
  C   C3        1.0  0.44580  0.00000  0.25000  1.0000
  C   C4        1.0  0.66667  0.77913  0.58333  1.0000
  C   C5        1.0  0.22087  0.88753  0.58333  1.0000
  C   C6        1.0  0.11247  0.33333  0.58333  1.0000
  C   C7        1.0  0.33333  0.11247  0.91667  1.0000
  C   C8        1.0  0.88753  0.22087  0.91667  1.0000
  C   C9        1.0  0.77913  0.66667  0.91667  1.0000
  C   C10       1.0  0.00000  0.55420  0.75000  1.0000
  C   C11       1.0  0.44580  0.44580  0.75000  1.0000
  C   C12       1.0  0.55420  0.00000  0.75000  1.0000
  C   C13       1.0  0.33333  0.22087  0.41667  1.0000
  C   C14       1.0  0.77913  0.11247  0.41667  1.0000
  C   C15       1.0  0.88753  0.66667  0.41667  1.0000
  C   C16       1.0  0.66667  0.88753  0.08333  1.0000
  C   C17       1.0  0.11247  0.77913  0.08333  1.0000
  C   C18       1.0  0.22087  0.33333  0.08333  1.0000
  H   H1        1.0  0.00000  0.56119  0.25000  1.0000
  H   H2        1.0  0.43881  0.43881  0.25000  1.0000
  H   H3        1.0  0.56119  0.00000  0.25000  1.0000
  H   H4        1.0  0.66667  0.89452  0.58333  1.0000
  H   H5        1.0  0.10548  0.77214  0.58333  1.0000
  H   H6        1.0  0.22786  0.33333  0.58333  1.0000
  H   H7        1.0  0.33333  0.22786  0.91667  1.0000
  H   H8        1.0  0.77214  0.10548  0.91667  1.0000
  H   H9        1.0  0.89452  0.66667  0.91667  1.0000
  H   H10       1.0  0.00000  0.43881  0.75000  1.0000
  H   H11       1.0  0.56119  0.56119  0.75000  1.0000
  H   H12       1.0  0.43881  0.00000  0.75000  1.0000
  H   H13       1.0  0.33333  0.10548  0.41667  1.0000
  H   H14       1.0  0.89452  0.22786  0.41667  1.0000
  H   H15       1.0  0.77214  0.66667  0.41667  1.0000
  H   H16       1.0  0.66667  0.77214  0.08333  1.0000
  H   H17       1.0  0.22786  0.89452  0.08333  1.0000
  H   H18       1.0  0.10548  0.33333  0.08333  1.0000
