data_image0
_chemical_formula_structural       Zn4O28C8H4O12H4O4H4O4H4C16H4C12H4C4H4C4H4C12H4C12H4C12O4C12H4C4H8
_chemical_formula_sum              "Zn4 O52 C96 H52"
_cell_length_a       11.0076
_cell_length_b       21.4138
_cell_length_c       13.7391
_cell_angle_alpha    90
_cell_angle_beta     108.52
_cell_angle_gamma    90

_space_group_name_H-M_alt    "P 1"
_space_group_IT_number       1

loop_
  _space_group_symop_operation_xyz
  'x, y, z'

loop_
  _atom_site_type_symbol
  _atom_site_label
  _atom_site_symmetry_multiplicity
  _atom_site_fract_x
  _atom_site_fract_y
  _atom_site_fract_z
  _atom_site_occupancy
  Zn  Zn1       1.0  0.11893  0.06286  0.66194  1.0000
  Zn  Zn2       1.0  0.88107  0.56286  0.83806  1.0000
  Zn  Zn3       1.0  0.88107  0.93714  0.33806  1.0000
  Zn  Zn4       1.0  0.11893  0.43714  0.16194  1.0000
  O   O1        1.0  0.12160  0.97289  0.65338  1.0000
  O   O2        1.0  0.87840  0.47289  0.84662  1.0000
  O   O3        1.0  0.87840  0.02711  0.34662  1.0000
  O   O4        1.0  0.12160  0.52711  0.15338  1.0000
  O   O5        1.0  0.43140  0.50560  0.39040  1.0000
  O   O6        1.0  0.56860  0.00560  0.10960  1.0000
  O   O7        1.0  0.56860  0.49440  0.60960  1.0000
  O   O8        1.0  0.43140  0.99440  0.89040  1.0000
  O   O9        1.0  0.80883  0.89188  0.43343  1.0000
  O   O10       1.0  0.19117  0.39188  0.06657  1.0000
  O   O11       1.0  0.19117  0.10812  0.56657  1.0000
  O   O12       1.0  0.80883  0.60812  0.93343  1.0000
  O   O13       1.0  0.64416  0.64492  0.71223  1.0000
  O   O14       1.0  0.35584  0.14492  0.78777  1.0000
  O   O15       1.0  0.35584  0.35508  0.28777  1.0000
  O   O16       1.0  0.64416  0.85508  0.21223  1.0000
  O   O17       1.0  0.80953  0.59159  0.69315  1.0000
  O   O18       1.0  0.19047  0.09159  0.80685  1.0000
  O   O19       1.0  0.19047  0.40841  0.30685  1.0000
  O   O20       1.0  0.80953  0.90841  0.19315  1.0000
  O   O21       1.0  0.20909  0.81486  0.40279  1.0000
  O   O22       1.0  0.79091  0.31486  0.09721  1.0000
  O   O23       1.0  0.79091  0.18514  0.59721  1.0000
  O   O24       1.0  0.20909  0.68514  0.90279  1.0000
  O   O25       1.0  0.93117  0.07310  0.63130  1.0000
  O   O26       1.0  0.06883  0.57310  0.86870  1.0000
  O   O27       1.0  0.06883  0.92690  0.36870  1.0000
  O   O28       1.0  0.93117  0.42690  0.13130  1.0000
  C   C1        1.0  0.75708  0.68802  0.60438  1.0000
  C   C2        1.0  0.24292  0.18802  0.89562  1.0000
  C   C3        1.0  0.24292  0.31198  0.39562  1.0000
  C   C4        1.0  0.75708  0.81198  0.10438  1.0000
  C   C5        1.0  0.88186  0.70954  0.63019  1.0000
  C   C6        1.0  0.11814  0.20954  0.86981  1.0000
  C   C7        1.0  0.11814  0.29046  0.36981  1.0000
  C   C8        1.0  0.88186  0.79046  0.13019  1.0000
  H   H1        1.0  0.94660  0.68910  0.68340  1.0000
  H   H2        1.0  0.05340  0.18910  0.81660  1.0000
  H   H3        1.0  0.05340  0.31090  0.31660  1.0000
  H   H4        1.0  0.94660  0.81090  0.18340  1.0000
  O   O29       1.0  0.91241  0.82065  0.37467  1.0000
  O   O30       1.0  0.08759  0.32065  0.12533  1.0000
  O   O31       1.0  0.08759  0.17935  0.62533  1.0000
  O   O32       1.0  0.91241  0.67935  0.87467  1.0000
  O   O33       1.0  0.36290  0.66299  0.68510  1.0000
  O   O34       1.0  0.63710  0.16299  0.81490  1.0000
  O   O35       1.0  0.63710  0.33701  0.31490  1.0000
  O   O36       1.0  0.36290  0.83701  0.18510  1.0000
  O   O37       1.0  0.23740  0.51916  0.40650  1.0000
  O   O38       1.0  0.76260  0.01916  0.09350  1.0000
  O   O39       1.0  0.76260  0.48084  0.59350  1.0000
  O   O40       1.0  0.23740  0.98084  0.90650  1.0000
  H   H5        1.0  0.23270  0.48020  0.39900  1.0000
  H   H6        1.0  0.76730  0.98020  0.10100  1.0000
  H   H7        1.0  0.76730  0.51980  0.60100  1.0000
  H   H8        1.0  0.23270  0.01980  0.89900  1.0000
  O   O41       1.0  0.07681  0.73238  0.38495  1.0000
  O   O42       1.0  0.92319  0.23238  0.11505  1.0000
  O   O43       1.0  0.92319  0.26762  0.61505  1.0000
  O   O44       1.0  0.07681  0.76762  0.88495  1.0000
  H   H9        1.0  0.02290  0.75950  0.38760  1.0000
  H   H10       1.0  0.97710  0.25950  0.11240  1.0000
  H   H11       1.0  0.97710  0.24050  0.61240  1.0000
  H   H12       1.0  0.02290  0.74050  0.88760  1.0000
  O   O45       1.0  0.49963  0.74363  0.70739  1.0000
  O   O46       1.0  0.50037  0.24363  0.79261  1.0000
  O   O47       1.0  0.50037  0.25637  0.29261  1.0000
  O   O48       1.0  0.49963  0.75637  0.20739  1.0000
  H   H13       1.0  0.55030  0.71660  0.69840  1.0000
  H   H14       1.0  0.44970  0.21660  0.80160  1.0000
  H   H15       1.0  0.44970  0.28340  0.30160  1.0000
  H   H16       1.0  0.55030  0.78340  0.19840  1.0000
  C   C9        1.0  0.21840  0.94121  0.65350  1.0000
  C   C10       1.0  0.78160  0.44121  0.84650  1.0000
  C   C11       1.0  0.78160  0.05879  0.34650  1.0000
  C   C12       1.0  0.21840  0.55879  0.15350  1.0000
  C   C13       1.0  0.04880  0.78431  0.61390  1.0000
  C   C14       1.0  0.95120  0.28431  0.88610  1.0000
  C   C15       1.0  0.95120  0.21569  0.38610  1.0000
  C   C16       1.0  0.04880  0.71569  0.11390  1.0000
  C   C17       1.0  0.91530  0.76028  0.58050  1.0000
  C   C18       1.0  0.08470  0.26028  0.91950  1.0000
  C   C19       1.0  0.08470  0.23972  0.41950  1.0000
  C   C20       1.0  0.91530  0.73972  0.08050  1.0000
  C   C21       1.0  0.69390  0.76629  0.47310  1.0000
  C   C22       1.0  0.30610  0.26629  0.02690  1.0000
  C   C23       1.0  0.30610  0.23371  0.52690  1.0000
  C   C24       1.0  0.69390  0.73371  0.97310  1.0000
  H   H17       1.0  0.62960  0.78620  0.41890  1.0000
  H   H18       1.0  0.37040  0.28620  0.08110  1.0000
  H   H19       1.0  0.37040  0.21380  0.58110  1.0000
  H   H20       1.0  0.62960  0.71380  0.91890  1.0000
  C   C25       1.0  0.19780  0.87099  0.64810  1.0000
  C   C26       1.0  0.80220  0.37099  0.85190  1.0000
  C   C27       1.0  0.80220  0.12901  0.35190  1.0000
  C   C28       1.0  0.19780  0.62901  0.14810  1.0000
  C   C29       1.0  0.81880  0.78811  0.50050  1.0000
  C   C30       1.0  0.18120  0.28811  0.99950  1.0000
  C   C31       1.0  0.18120  0.21189  0.49950  1.0000
  C   C32       1.0  0.81880  0.71189  0.00050  1.0000
  C   C33       1.0  0.07360  0.84838  0.62120  1.0000
  C   C34       1.0  0.92640  0.34838  0.87880  1.0000
  C   C35       1.0  0.92640  0.15162  0.37880  1.0000
  C   C36       1.0  0.07360  0.65162  0.12120  1.0000
  H   H21       1.0  0.00410  0.87690  0.60750  1.0000
  H   H22       1.0  0.99590  0.37690  0.89250  1.0000
  H   H23       1.0  0.99590  0.12310  0.39250  1.0000
  H   H24       1.0  0.00410  0.62310  0.10750  1.0000
  C   C37       1.0  0.30100  0.83025  0.66960  1.0000
  C   C38       1.0  0.69900  0.33025  0.83040  1.0000
  C   C39       1.0  0.69900  0.16975  0.33040  1.0000
  C   C40       1.0  0.30100  0.66975  0.16960  1.0000
  H   H25       1.0  0.38600  0.84580  0.68680  1.0000
  H   H26       1.0  0.61400  0.34580  0.81320  1.0000
  H   H27       1.0  0.61400  0.15420  0.31320  1.0000
  H   H28       1.0  0.38600  0.65420  0.18680  1.0000
  C   C41       1.0  0.27260  0.64823  0.41270  1.0000
  C   C42       1.0  0.72740  0.14823  0.08730  1.0000
  C   C43       1.0  0.72740  0.35177  0.58730  1.0000
  C   C44       1.0  0.27260  0.85177  0.91270  1.0000
  H   H29       1.0  0.18690  0.63330  0.39050  1.0000
  H   H30       1.0  0.81310  0.13330  0.10950  1.0000
  H   H31       1.0  0.81310  0.36670  0.60950  1.0000
  H   H32       1.0  0.18690  0.86670  0.89050  1.0000
  C   C45       1.0  0.27800  0.76622  0.66550  1.0000
  C   C46       1.0  0.72200  0.26622  0.83450  1.0000
  C   C47       1.0  0.72200  0.23378  0.33450  1.0000
  C   C48       1.0  0.27800  0.73378  0.16550  1.0000
  C   C49       1.0  0.73130  0.63815  0.67300  1.0000
  C   C50       1.0  0.26870  0.13815  0.82700  1.0000
  C   C51       1.0  0.26870  0.36185  0.32700  1.0000
  C   C52       1.0  0.73130  0.86185  0.17300  1.0000
  C   C53       1.0  0.15330  0.74323  0.63860  1.0000
  C   C54       1.0  0.84670  0.24323  0.86140  1.0000
  C   C55       1.0  0.84670  0.25677  0.36140  1.0000
  C   C56       1.0  0.15330  0.75677  0.13860  1.0000
  H   H33       1.0  0.13900  0.69940  0.63710  1.0000
  H   H34       1.0  0.86100  0.19940  0.86290  1.0000
  H   H35       1.0  0.86100  0.30060  0.36290  1.0000
  H   H36       1.0  0.13900  0.80060  0.13710  1.0000
  C   C57       1.0  0.85010  0.83608  0.43150  1.0000
  C   C58       1.0  0.14990  0.33608  0.06850  1.0000
  C   C59       1.0  0.14990  0.16392  0.56850  1.0000
  C   C60       1.0  0.85010  0.66392  0.93150  1.0000
  C   C61       1.0  0.19050  0.75886  0.40360  1.0000
  C   C62       1.0  0.80950  0.25886  0.09640  1.0000
  C   C63       1.0  0.80950  0.24114  0.59640  1.0000
  C   C64       1.0  0.19050  0.74114  0.90360  1.0000
  C   C65       1.0  0.42250  0.73375  0.46130  1.0000
  C   C66       1.0  0.57750  0.23375  0.03870  1.0000
  C   C67       1.0  0.57750  0.26625  0.53870  1.0000
  C   C68       1.0  0.42250  0.76625  0.96130  1.0000
  H   H37       1.0  0.43820  0.77740  0.46920  1.0000
  H   H38       1.0  0.56180  0.27740  0.03080  1.0000
  H   H39       1.0  0.56180  0.22260  0.53080  1.0000
  H   H40       1.0  0.43820  0.72260  0.96920  1.0000
  C   C69       1.0  0.38380  0.71889  0.68730  1.0000
  C   C70       1.0  0.61620  0.21889  0.81270  1.0000
  C   C71       1.0  0.61620  0.28111  0.31270  1.0000
  C   C72       1.0  0.38380  0.78111  0.18730  1.0000
  C   C73       1.0  0.65990  0.71525  0.52380  1.0000
  C   C74       1.0  0.34010  0.21525  0.97620  1.0000
  C   C75       1.0  0.34010  0.28475  0.47620  1.0000
  C   C76       1.0  0.65990  0.78475  0.02380  1.0000
  C   C77       1.0  0.35320  0.53868  0.40800  1.0000
  C   C78       1.0  0.64680  0.03868  0.09200  1.0000
  C   C79       1.0  0.64680  0.46132  0.59200  1.0000
  C   C80       1.0  0.35320  0.96132  0.90800  1.0000
  O   O49       1.0  0.32420  0.96237  0.65820  1.0000
  O   O50       1.0  0.67580  0.46237  0.84180  1.0000
  O   O51       1.0  0.67580  0.03763  0.34180  1.0000
  O   O52       1.0  0.32420  0.53763  0.15820  1.0000
  C   C81       1.0  0.37430  0.60675  0.43220  1.0000
  C   C82       1.0  0.62570  0.10675  0.06780  1.0000
  C   C83       1.0  0.62570  0.39325  0.56780  1.0000
  C   C84       1.0  0.37430  0.89325  0.93220  1.0000
  C   C85       1.0  0.52560  0.69204  0.48540  1.0000
  C   C86       1.0  0.47440  0.19204  0.01460  1.0000
  C   C87       1.0  0.47440  0.30796  0.51460  1.0000
  C   C88       1.0  0.52560  0.80796  0.98540  1.0000
  C   C89       1.0  0.50040  0.62863  0.46790  1.0000
  C   C90       1.0  0.49960  0.12863  0.03210  1.0000
  C   C91       1.0  0.49960  0.37137  0.53210  1.0000
  C   C92       1.0  0.50040  0.87137  0.96790  1.0000
  H   H41       1.0  0.56950  0.60000  0.48030  1.0000
  H   H42       1.0  0.43050  0.10000  0.01970  1.0000
  H   H43       1.0  0.43050  0.40000  0.51970  1.0000
  H   H44       1.0  0.56950  0.90000  0.98030  1.0000
  C   C93       1.0  0.29720  0.71179  0.42580  1.0000
  C   C94       1.0  0.70280  0.21179  0.07420  1.0000
  C   C95       1.0  0.70280  0.28821  0.57420  1.0000
  C   C96       1.0  0.29720  0.78821  0.92580  1.0000
  H   H45       1.0  0.88000  0.04220  0.61900  1.0000
  H   H46       1.0  0.12000  0.54220  0.88100  1.0000
  H   H47       1.0  0.12000  0.95780  0.38100  1.0000
  H   H48       1.0  0.88000  0.45780  0.11900  1.0000
  H   H49       1.0  0.89600  0.10900  0.61300  1.0000
  H   H50       1.0  0.10400  0.60900  0.88700  1.0000
  H   H51       1.0  0.10400  0.89100  0.38700  1.0000
  H   H52       1.0  0.89600  0.39100  0.11300  1.0000
