data_image0
_chemical_formula_structural       Zn2Cl2O8C2H2C4H2C4H2C4H2C2
_chemical_formula_sum              "Zn2 Cl2 O8 C16 H8"
_cell_length_a       9.4989
_cell_length_b       12.6502
_cell_length_c       12.8862
_cell_angle_alpha    84.965
_cell_angle_beta     68.73
_cell_angle_gamma    78.415

_space_group_name_H-M_alt    "P 1"
_space_group_IT_number       1

loop_
  _space_group_symop_operation_xyz
  'x, y, z'

loop_
  _atom_site_type_symbol
  _atom_site_label
  _atom_site_symmetry_multiplicity
  _atom_site_fract_x
  _atom_site_fract_y
  _atom_site_fract_z
  _atom_site_occupancy
  Zn  Zn1       1.0  0.62798  0.36772  0.40444  1.0000
  Zn  Zn2       1.0  0.37202  0.63228  0.59556  1.0000
  Cl  Cl1       1.0  0.73060  0.19466  0.42844  1.0000
  Cl  Cl2       1.0  0.26940  0.80534  0.57156  1.0000
  O   O1        1.0  0.40877  0.38827  0.42526  1.0000
  O   O2        1.0  0.59123  0.61173  0.57474  1.0000
  O   O3        1.0  0.37852  0.56218  0.45940  1.0000
  O   O4        1.0  0.62148  0.43782  0.54060  1.0000
  O   O5        1.0  0.67962  0.37063  0.17770  1.0000
  O   O6        1.0  0.32038  0.62937  0.82230  1.0000
  O   O7        1.0  0.76718  0.44454  0.28686  1.0000
  O   O8        1.0  0.23282  0.55546  0.71314  1.0000
  C   C1        1.0  0.09480  0.39901  0.47860  1.0000
  C   C2        1.0  0.90520  0.60099  0.52140  1.0000
  H   H1        1.0  0.15940  0.33010  0.46390  1.0000
  H   H2        1.0  0.84060  0.66990  0.53610  1.0000
  C   C3        1.0  0.15710  0.49007  0.47825  1.0000
  C   C4        1.0  0.84290  0.50993  0.52175  1.0000
  C   C5        1.0  0.06180  0.59094  0.49958  1.0000
  C   C6        1.0  0.93820  0.40906  0.50042  1.0000
  H   H3        1.0  0.10390  0.65310  0.49920  1.0000
  H   H4        1.0  0.89610  0.34690  0.50080  1.0000
  C   C7        1.0  0.32620  0.48004  0.45380  1.0000
  C   C8        1.0  0.67380  0.51996  0.54620  1.0000
  C   C9        1.0  0.00760  0.50287  0.10550  1.0000
  C   C10       1.0  0.99240  0.49713  0.89450  1.0000
  H   H5        1.0  0.01350  0.50440  0.17740  1.0000
  H   H6        1.0  0.98650  0.49560  0.82260  1.0000
  C   C11       1.0  0.88920  0.46267  0.09228  1.0000
  C   C12       1.0  0.11080  0.53733  0.90772  1.0000
  C   C13       1.0  0.88270  0.45927  0.98685  1.0000
  C   C14       1.0  0.11730  0.54073  0.01315  1.0000
  H   H7        1.0  0.80270  0.43080  0.97770  1.0000
  H   H8        1.0  0.19730  0.56920  0.02230  1.0000
  C   C15       1.0  0.76850  0.42182  0.19198  1.0000
  C   C16       1.0  0.23150  0.57818  0.80802  1.0000
