data_image0
_chemical_formula_structural       Cl4Na2O10C12H4
_chemical_formula_sum              "Cl4 Na2 O10 C12 H4"
_cell_length_a       4.9601
_cell_length_b       8.499
_cell_length_c       16.415
_cell_angle_alpha    88.135
_cell_angle_beta     84.817
_cell_angle_gamma    88.068

_space_group_name_H-M_alt    "P 1"
_space_group_IT_number       1

loop_
  _space_group_symop_operation_xyz
  'x, y, z'

loop_
  _atom_site_type_symbol
  _atom_site_label
  _atom_site_symmetry_multiplicity
  _atom_site_fract_x
  _atom_site_fract_y
  _atom_site_fract_z
  _atom_site_occupancy
  Cl  Cl1       1.0  0.02871  0.25813  0.98421  1.0000
  Cl  Cl2       1.0  0.97129  0.74187  0.01579  1.0000
  Cl  Cl3       1.0  0.08424  0.29022  0.52265  1.0000
  Cl  Cl4       1.0  0.91576  0.70978  0.47735  1.0000
  Na  Na1       1.0  0.30016  0.96334  0.25491  1.0000
  Na  Na2       1.0  0.69984  0.03666  0.74509  1.0000
  O   O1        1.0  0.21150  0.10147  0.13611  1.0000
  O   O2        1.0  0.78850  0.89853  0.86389  1.0000
  O   O3        1.0  0.21280  0.09683  0.37533  1.0000
  O   O4        1.0  0.78720  0.90317  0.62467  1.0000
  O   O5        1.0  0.43020  0.14197  0.64578  1.0000
  O   O6        1.0  0.56980  0.85803  0.35422  1.0000
  O   O7        1.0  0.98450  0.75703  0.24637  1.0000
  O   O8        1.0  0.01550  0.24297  0.75363  1.0000
  O   O9        1.0  0.40080  0.12130  0.85083  1.0000
  O   O10       1.0  0.59920  0.87870  0.14917  1.0000
  C   C1        1.0  0.33970  0.05740  0.43470  1.0000
  C   C2        1.0  0.66030  0.94260  0.56530  1.0000
  C   C3        1.0  0.28950  0.11830  0.99282  1.0000
  C   C4        1.0  0.71050  0.88170  0.00718  1.0000
  C   C5        1.0  0.33680  0.05866  0.07158  1.0000
  C   C6        1.0  0.66320  0.94134  0.92842  1.0000
  C   C7        1.0  0.43580  0.06933  0.92160  1.0000
  C   C8        1.0  0.56420  0.93067  0.07840  1.0000
  C   C9        1.0  0.45400  0.08199  0.57678  1.0000
  C   C10       1.0  0.54600  0.91801  0.42322  1.0000
  C   C11       1.0  0.31190  0.13085  0.51071  1.0000
  C   C12       1.0  0.68810  0.86915  0.48929  1.0000
  H   H1        1.0  0.87000  0.77400  0.29130  1.0000
  H   H2        1.0  0.13000  0.22600  0.70870  1.0000
  H   H3        1.0  0.89500  0.77900  0.20130  1.0000
  H   H4        1.0  0.10500  0.22100  0.79870  1.0000
