data_image0
_chemical_formula_structural       Ga4P4F8O12C2H4C2H4
_chemical_formula_sum              "Ga4 P4 F8 O12 C4 H8"
_cell_length_a       5.398
_cell_length_b       8.122
_cell_length_c       15.839
_cell_angle_alpha    78.89
_cell_angle_beta     89.6
_cell_angle_gamma    79.35

_space_group_name_H-M_alt    "P 1"
_space_group_IT_number       1

loop_
  _space_group_symop_operation_xyz
  'x, y, z'

loop_
  _atom_site_type_symbol
  _atom_site_label
  _atom_site_symmetry_multiplicity
  _atom_site_fract_x
  _atom_site_fract_y
  _atom_site_fract_z
  _atom_site_occupancy
  Ga  Ga1       1.0  0.80515  0.15084  0.51288  1.0000
  Ga  Ga2       1.0  0.19485  0.84916  0.48712  1.0000
  Ga  Ga3       1.0  0.69893  0.84657  0.99704  1.0000
  Ga  Ga4       1.0  0.30107  0.15343  0.00296  1.0000
  P   P1        1.0  0.18104  0.89637  0.89165  1.0000
  P   P2        1.0  0.81896  0.10363  0.10835  1.0000
  P   P3        1.0  0.32371  0.07542  0.61516  1.0000
  P   P4        1.0  0.67629  0.92458  0.38484  1.0000
  F   F1        1.0  0.74970  0.62342  0.05730  1.0000
  F   F2        1.0  0.25030  0.37658  0.94270  1.0000
  F   F3        1.0  0.75860  0.38077  0.46110  1.0000
  F   F4        1.0  0.24140  0.61923  0.53890  1.0000
  F   F5        1.0  0.10360  0.09327  0.44113  1.0000
  F   F6        1.0  0.89640  0.90673  0.55887  1.0000
  F   F7        1.0  0.60270  0.08114  0.93694  1.0000
  F   F8        1.0  0.39730  0.91886  0.06306  1.0000
  O   O1        1.0  0.13150  0.07320  0.91552  1.0000
  O   O2        1.0  0.86850  0.92680  0.08448  1.0000
  O   O3        1.0  0.51880  0.18489  0.58220  1.0000
  O   O4        1.0  0.48120  0.81511  0.41780  1.0000
  O   O5        1.0  0.97900  0.79362  0.92571  1.0000
  O   O6        1.0  0.02100  0.20638  0.07429  1.0000
  O   O7        1.0  0.44500  0.79046  0.92086  1.0000
  O   O8        1.0  0.55500  0.20954  0.07914  1.0000
  O   O9        1.0  0.05650  0.17867  0.59453  1.0000
  O   O10       1.0  0.94350  0.82133  0.40547  1.0000
  O   O11       1.0  0.37170  0.90437  0.58337  1.0000
  O   O12       1.0  0.62830  0.09563  0.41663  1.0000
  C   C1        1.0  0.35870  0.02830  0.73152  1.0000
  C   C2        1.0  0.64130  0.97170  0.26848  1.0000
  H   H1        1.0  0.53000  0.96200  0.74820  1.0000
  H   H2        1.0  0.47000  0.03800  0.25180  1.0000
  H   H3        1.0  0.34180  0.13690  0.75260  1.0000
  H   H4        1.0  0.65820  0.86310  0.24740  1.0000
  C   C3        1.0  0.16380  0.92710  0.77527  1.0000
  C   C4        1.0  0.83620  0.07290  0.22473  1.0000
  H   H5        1.0  0.19080  0.81400  0.75840  1.0000
  H   H6        1.0  0.80920  0.18600  0.24160  1.0000
  H   H7        1.0  0.99270  0.98830  0.75450  1.0000
  H   H8        1.0  0.00730  0.01170  0.24550  1.0000
