data_image0
_chemical_formula_structural       Er2N4O24C6H2C4H2C4H2C8H2C4H2C4H2C2
_chemical_formula_sum              "Er2 N4 O24 C32 H12"
_cell_length_a       8.6789
_cell_length_b       9.386
_cell_length_c       13.8299
_cell_angle_alpha    84.9
_cell_angle_beta     77.94
_cell_angle_gamma    73.81

_space_group_name_H-M_alt    "P 1"
_space_group_IT_number       1

loop_
  _space_group_symop_operation_xyz
  'x, y, z'

loop_
  _atom_site_type_symbol
  _atom_site_label
  _atom_site_symmetry_multiplicity
  _atom_site_fract_x
  _atom_site_fract_y
  _atom_site_fract_z
  _atom_site_occupancy
  Er  Er1       1.0  0.32679  0.94501  0.91556  1.0000
  Er  Er2       1.0  0.67321  0.05499  0.08444  1.0000
  N   N1        1.0  0.72960  0.49490  0.61640  1.0000
  N   N2        1.0  0.27040  0.50510  0.38360  1.0000
  N   N3        1.0  0.80710  0.39940  0.22830  1.0000
  N   N4        1.0  0.19290  0.60060  0.77170  1.0000
  O   O1        1.0  0.23250  0.99610  0.77310  1.0000
  O   O2        1.0  0.76750  0.00390  0.22690  1.0000
  O   O3        1.0  0.27100  0.13890  0.63840  1.0000
  O   O4        1.0  0.72900  0.86110  0.36160  1.0000
  O   O5        1.0  0.64800  0.01560  0.92930  1.0000
  O   O6        1.0  0.35200  0.98440  0.07070  1.0000
  O   O7        1.0  0.46080  0.12410  0.83960  1.0000
  O   O8        1.0  0.53920  0.87590  0.16040  1.0000
  O   O9        1.0  0.59320  0.52310  0.59790  1.0000
  O   O10       1.0  0.40680  0.47690  0.40210  1.0000
  O   O11       1.0  0.82310  0.57000  0.58690  1.0000
  O   O12       1.0  0.17690  0.43000  0.41310  1.0000
  O   O13       1.0  0.14800  0.80760  0.96010  1.0000
  O   O14       1.0  0.85200  0.19240  0.03990  1.0000
  O   O15       1.0  0.88800  0.86140  0.03480  1.0000
  O   O16       1.0  0.11200  0.13860  0.96520  1.0000
  O   O17       1.0  0.50550  0.28660  0.03040  1.0000
  O   O18       1.0  0.49450  0.71340  0.96960  1.0000
  O   O19       1.0  0.43550  0.20470  0.18230  1.0000
  O   O20       1.0  0.56450  0.79530  0.81770  1.0000
  O   O21       1.0  0.82890  0.29740  0.28800  1.0000
  O   O22       1.0  0.17110  0.70260  0.71200  1.0000
  O   O23       1.0  0.67360  0.45580  0.20560  1.0000
  O   O24       1.0  0.32640  0.54420  0.79440  1.0000
  C   C1        1.0  0.18340  0.09550  0.71160  1.0000
  C   C2        1.0  0.81660  0.90450  0.28840  1.0000
  C   C3        1.0  0.00170  0.16850  0.72300  1.0000
  C   C4        1.0  0.99830  0.83150  0.27700  1.0000
  C   C5        1.0  0.88890  0.10770  0.78730  1.0000
  C   C6        1.0  0.11110  0.89230  0.21270  1.0000
  H   H1        1.0  0.92510  0.02440  0.82660  1.0000
  H   H2        1.0  0.07490  0.97560  0.17340  1.0000
  C   C7        1.0  0.72230  0.17090  0.79310  1.0000
  C   C8        1.0  0.27770  0.82910  0.20690  1.0000
  C   C9        1.0  0.66800  0.29830  0.73650  1.0000
  C   C10       1.0  0.33200  0.70170  0.26350  1.0000
  H   H3        1.0  0.55690  0.34100  0.73880  1.0000
  H   H4        1.0  0.44310  0.65900  0.26120  1.0000
  C   C11       1.0  0.78310  0.35930  0.67710  1.0000
  C   C12       1.0  0.21690  0.64070  0.32290  1.0000
  C   C13       1.0  0.94960  0.29720  0.66780  1.0000
  C   C14       1.0  0.05040  0.70280  0.33220  1.0000
  H   H5        1.0  0.02410  0.34030  0.62590  1.0000
  H   H6        1.0  0.97590  0.65970  0.37410  1.0000
  C   C15       1.0  0.60070  0.10090  0.85980  1.0000
  C   C16       1.0  0.39930  0.89910  0.14020  1.0000
  C   C17       1.0  0.02810  0.77730  0.01730  1.0000
  C   C18       1.0  0.97190  0.22270  0.98270  1.0000
  C   C19       1.0  0.05470  0.62740  0.06890  1.0000
  C   C20       1.0  0.94530  0.37260  0.93110  1.0000
  C   C21       1.0  0.21170  0.53230  0.06310  1.0000
  C   C22       1.0  0.78830  0.46770  0.93690  1.0000
  H   H7        1.0  0.30090  0.55950  0.02430  1.0000
  H   H8        1.0  0.69910  0.44050  0.97570  1.0000
  C   C23       1.0  0.23460  0.39620  0.11570  1.0000
  C   C24       1.0  0.76540  0.60380  0.88430  1.0000
  C   C25       1.0  0.10290  0.35550  0.17280  1.0000
  C   C26       1.0  0.89710  0.64450  0.82720  1.0000
  H   H9        1.0  0.11790  0.26690  0.21000  1.0000
  H   H10       1.0  0.88210  0.73310  0.79000  1.0000
  C   C27       1.0  0.94770  0.44820  0.17410  1.0000
  C   C28       1.0  0.05230  0.55180  0.82590  1.0000
  C   C29       1.0  0.92160  0.58470  0.12410  1.0000
  C   C30       1.0  0.07840  0.41530  0.87590  1.0000
  H   H11       1.0  0.81640  0.64650  0.12750  1.0000
  H   H12       1.0  0.18360  0.35350  0.87250  1.0000
  C   C31       1.0  0.40210  0.29210  0.10920  1.0000
  C   C32       1.0  0.59790  0.70790  0.89080  1.0000
