data_image0
_chemical_formula_structural       C4H4C4H4C4H4Cu4O24
_chemical_formula_sum              "C12 H12 Cu4 O24"
_cell_length_a       11.656
_cell_length_b       8.7412
_cell_length_c       8.7369
_cell_angle_alpha    90
_cell_angle_beta     94.2
_cell_angle_gamma    90

_space_group_name_H-M_alt    "P 1"
_space_group_IT_number       1

loop_
  _space_group_symop_operation_xyz
  'x, y, z'

loop_
  _atom_site_type_symbol
  _atom_site_label
  _atom_site_symmetry_multiplicity
  _atom_site_fract_x
  _atom_site_fract_y
  _atom_site_fract_z
  _atom_site_occupancy
  C   C1        1.0  0.02574  0.28740  0.74990  1.0000
  C   C2        1.0  0.97426  0.78740  0.75010  1.0000
  C   C3        1.0  0.97426  0.71260  0.25010  1.0000
  C   C4        1.0  0.02574  0.21260  0.24990  1.0000
  H   H1        1.0  0.96200  0.23500  0.68700  1.0000
  H   H2        1.0  0.03800  0.73500  0.81300  1.0000
  H   H3        1.0  0.03800  0.76500  0.31300  1.0000
  H   H4        1.0  0.96200  0.26500  0.18700  1.0000
  C   C5        1.0  0.75087  0.47480  0.50190  1.0000
  C   C6        1.0  0.24913  0.97480  0.99810  1.0000
  C   C7        1.0  0.24913  0.52520  0.49810  1.0000
  C   C8        1.0  0.75087  0.02520  0.00190  1.0000
  H   H5        1.0  0.74940  0.56400  0.44000  1.0000
  H   H6        1.0  0.25060  0.06400  0.06000  1.0000
  H   H7        1.0  0.25060  0.43600  0.56000  1.0000
  H   H8        1.0  0.74940  0.93600  0.94000  1.0000
  C   C9        1.0  0.49504  0.19780  0.26500  1.0000
  C   C10       1.0  0.50496  0.69780  0.23500  1.0000
  C   C11       1.0  0.50496  0.80220  0.73500  1.0000
  C   C12       1.0  0.49504  0.30220  0.76500  1.0000
  H   H9        1.0  0.55700  0.25500  0.22100  1.0000
  H   H10       1.0  0.44300  0.75500  0.27900  1.0000
  H   H11       1.0  0.44300  0.74500  0.77900  1.0000
  H   H12       1.0  0.55700  0.24500  0.72100  1.0000
  Cu  Cu1       1.0  0.00000  0.50000  0.50000  1.0000
  Cu  Cu2       1.0  0.00000  0.00000  0.00000  1.0000
  Cu  Cu3       1.0  0.50000  0.50000  0.50000  1.0000
  Cu  Cu4       1.0  0.50000  0.00000  0.00000  1.0000
  O   O1        1.0  0.06139  0.40965  0.69368  1.0000
  O   O2        1.0  0.93861  0.90965  0.80632  1.0000
  O   O3        1.0  0.93861  0.59035  0.30632  1.0000
  O   O4        1.0  0.06139  0.09035  0.19368  1.0000
  O   O5        1.0  0.06422  0.23274  0.87474  1.0000
  O   O6        1.0  0.93578  0.73274  0.62526  1.0000
  O   O7        1.0  0.93578  0.76726  0.12526  1.0000
  O   O8        1.0  0.06422  0.26726  0.37474  1.0000
  O   O9        1.0  0.84645  0.41469  0.53476  1.0000
  O   O10       1.0  0.15355  0.91469  0.96524  1.0000
  O   O11       1.0  0.15355  0.58531  0.46524  1.0000
  O   O12       1.0  0.84645  0.08531  0.03476  1.0000
  O   O13       1.0  0.65815  0.42515  0.54658  1.0000
  O   O14       1.0  0.34185  0.92515  0.95342  1.0000
  O   O15       1.0  0.34185  0.57485  0.45342  1.0000
  O   O16       1.0  0.65815  0.07485  0.04658  1.0000
  O   O17       1.0  0.45524  0.07897  0.19849  1.0000
  O   O18       1.0  0.54476  0.57897  0.30151  1.0000
  O   O19       1.0  0.54476  0.92103  0.80151  1.0000
  O   O20       1.0  0.45524  0.42103  0.69849  1.0000
  O   O21       1.0  0.46104  0.24948  0.38711  1.0000
  O   O22       1.0  0.53896  0.74948  0.11289  1.0000
  O   O23       1.0  0.53896  0.75052  0.61289  1.0000
  O   O24       1.0  0.46104  0.25052  0.88711  1.0000
