data_image0
_chemical_formula_structural       Cu4O24C8H8C4H4
_chemical_formula_sum              "Cu4 O24 C12 H12"
_cell_length_a       8.7311
_cell_length_b       11.64
_cell_length_c       9.0188
_cell_angle_alpha    90
_cell_angle_beta     90
_cell_angle_gamma    90

_space_group_name_H-M_alt    "P 1"
_space_group_IT_number       1

loop_
  _space_group_symop_operation_xyz
  'x, y, z'

loop_
  _atom_site_type_symbol
  _atom_site_label
  _atom_site_symmetry_multiplicity
  _atom_site_fract_x
  _atom_site_fract_y
  _atom_site_fract_z
  _atom_site_occupancy
  Cu  Cu1       1.0  0.50000  0.50000  0.50000  1.0000
  Cu  Cu2       1.0  0.00000  0.50000  0.00000  1.0000
  Cu  Cu3       1.0  0.50000  0.00000  0.50000  1.0000
  Cu  Cu4       1.0  0.00000  0.00000  0.00000  1.0000
  O   O1        1.0  0.30773  0.44595  0.41116  1.0000
  O   O2        1.0  0.19227  0.55405  0.91116  1.0000
  O   O3        1.0  0.69227  0.94595  0.58884  1.0000
  O   O4        1.0  0.80773  0.05405  0.08884  1.0000
  O   O5        1.0  0.69227  0.55405  0.58884  1.0000
  O   O6        1.0  0.80773  0.44595  0.08884  1.0000
  O   O7        1.0  0.30773  0.05405  0.41116  1.0000
  O   O8        1.0  0.19227  0.94595  0.91116  1.0000
  O   O9        1.0  0.12960  0.44512  0.23819  1.0000
  O   O10       1.0  0.37040  0.55488  0.73819  1.0000
  O   O11       1.0  0.87040  0.94512  0.76181  1.0000
  O   O12       1.0  0.62960  0.05488  0.26181  1.0000
  O   O13       1.0  0.87040  0.55488  0.76181  1.0000
  O   O14       1.0  0.62960  0.44512  0.26181  1.0000
  O   O15       1.0  0.12960  0.05488  0.23819  1.0000
  O   O16       1.0  0.37040  0.94512  0.73819  1.0000
  O   O17       1.0  0.46165  0.65582  0.42104  1.0000
  O   O18       1.0  0.03835  0.34418  0.92104  1.0000
  O   O19       1.0  0.53835  0.15582  0.57896  1.0000
  O   O20       1.0  0.96165  0.84418  0.07896  1.0000
  O   O21       1.0  0.53835  0.34418  0.57896  1.0000
  O   O22       1.0  0.96165  0.65582  0.07896  1.0000
  O   O23       1.0  0.46165  0.84418  0.42104  1.0000
  O   O24       1.0  0.03835  0.15582  0.92104  1.0000
  C   C1        1.0  0.24910  0.48225  0.29360  1.0000
  C   C2        1.0  0.25090  0.51775  0.79360  1.0000
  C   C3        1.0  0.75090  0.98225  0.70640  1.0000
  C   C4        1.0  0.74910  0.01775  0.20640  1.0000
  C   C5        1.0  0.75090  0.51775  0.70640  1.0000
  C   C6        1.0  0.74910  0.48225  0.20640  1.0000
  C   C7        1.0  0.24910  0.01775  0.29360  1.0000
  C   C8        1.0  0.25090  0.98225  0.79360  1.0000
  H   H1        1.0  0.29920  0.54150  0.24420  1.0000
  H   H2        1.0  0.20080  0.45850  0.74420  1.0000
  H   H3        1.0  0.70080  0.04150  0.75580  1.0000
  H   H4        1.0  0.79920  0.95850  0.25580  1.0000
  H   H5        1.0  0.70080  0.45850  0.75580  1.0000
  H   H6        1.0  0.79920  0.54150  0.25580  1.0000
  H   H7        1.0  0.29920  0.95850  0.24420  1.0000
  H   H8        1.0  0.20080  0.04150  0.74420  1.0000
  C   C9        1.0  0.49430  0.75000  0.47830  1.0000
  C   C10       1.0  0.00570  0.25000  0.97830  1.0000
  C   C11       1.0  0.50570  0.25000  0.52170  1.0000
  C   C12       1.0  0.99430  0.75000  0.02170  1.0000
  H   H9        1.0  0.54570  0.75000  0.56860  1.0000
  H   H10       1.0  0.95430  0.25000  0.06860  1.0000
  H   H11       1.0  0.45430  0.25000  0.43140  1.0000
  H   H12       1.0  0.04570  0.75000  0.93140  1.0000
