data_image0
_chemical_formula_structural       Dy4Co4N4O24C16H8C8N8C4H4C24H8N8C8H8C8H8C8H8C8H8O8C8O8C8O16C8H8N8H24
_chemical_formula_sum              "Dy4 Co4 N28 O56 C108 H84"
_cell_length_a       17.888
_cell_length_b       11.37
_cell_length_c       19.315
_cell_angle_alpha    90
_cell_angle_beta     108.71
_cell_angle_gamma    90

_space_group_name_H-M_alt    "P 1"
_space_group_IT_number       1

loop_
  _space_group_symop_operation_xyz
  'x, y, z'

loop_
  _atom_site_type_symbol
  _atom_site_label
  _atom_site_symmetry_multiplicity
  _atom_site_fract_x
  _atom_site_fract_y
  _atom_site_fract_z
  _atom_site_occupancy
  Dy  Dy1       1.0  0.00000  0.07654  0.25000  1.0000
  Dy  Dy2       1.0  0.50000  0.57654  0.25000  1.0000
  Dy  Dy3       1.0  0.00000  0.92346  0.75000  1.0000
  Dy  Dy4       1.0  0.50000  0.42346  0.75000  1.0000
  Co  Co1       1.0  0.25000  0.25000  0.50000  1.0000
  Co  Co2       1.0  0.75000  0.25000  0.00000  1.0000
  Co  Co3       1.0  0.75000  0.75000  0.50000  1.0000
  Co  Co4       1.0  0.25000  0.75000  0.00000  1.0000
  N   N1        1.0  0.00000  0.29720  0.25000  1.0000
  N   N2        1.0  0.50000  0.79720  0.25000  1.0000
  N   N3        1.0  0.00000  0.70280  0.75000  1.0000
  N   N4        1.0  0.50000  0.20280  0.75000  1.0000
  O   O1        1.0  0.27840  0.41902  0.53989  1.0000
  O   O2        1.0  0.72160  0.41902  0.96011  1.0000
  O   O3        1.0  0.77840  0.91902  0.53989  1.0000
  O   O4        1.0  0.22160  0.91902  0.96011  1.0000
  O   O5        1.0  0.72160  0.58098  0.46011  1.0000
  O   O6        1.0  0.27840  0.58098  0.03989  1.0000
  O   O7        1.0  0.22160  0.08098  0.46011  1.0000
  O   O8        1.0  0.77840  0.08098  0.03989  1.0000
  O   O9        1.0  0.10698  0.16921  0.34299  1.0000
  O   O10       1.0  0.89302  0.16921  0.15701  1.0000
  O   O11       1.0  0.60698  0.66921  0.34299  1.0000
  O   O12       1.0  0.39302  0.66921  0.15701  1.0000
  O   O13       1.0  0.89302  0.83079  0.65701  1.0000
  O   O14       1.0  0.10698  0.83079  0.84299  1.0000
  O   O15       1.0  0.39302  0.33079  0.65701  1.0000
  O   O16       1.0  0.60698  0.33079  0.84299  1.0000
  O   O17       1.0  0.16248  0.32653  0.40867  1.0000
  O   O18       1.0  0.83752  0.32653  0.09133  1.0000
  O   O19       1.0  0.66248  0.82653  0.40867  1.0000
  O   O20       1.0  0.33752  0.82653  0.09133  1.0000
  O   O21       1.0  0.83752  0.67347  0.59133  1.0000
  O   O22       1.0  0.16248  0.67347  0.90867  1.0000
  O   O23       1.0  0.33752  0.17347  0.59133  1.0000
  O   O24       1.0  0.66248  0.17347  0.90867  1.0000
  C   C1        1.0  0.05524  0.35630  0.30130  1.0000
  C   C2        1.0  0.94476  0.35630  0.19870  1.0000
  C   C3        1.0  0.55524  0.85630  0.30130  1.0000
  C   C4        1.0  0.44476  0.85630  0.19870  1.0000
  C   C5        1.0  0.94476  0.64370  0.69870  1.0000
  C   C6        1.0  0.05524  0.64370  0.80130  1.0000
  C   C7        1.0  0.44476  0.14370  0.69870  1.0000
  C   C8        1.0  0.55524  0.14370  0.80130  1.0000
  C   C9        1.0  0.05724  0.47760  0.30317  1.0000
  C   C10       1.0  0.94276  0.47760  0.19683  1.0000
  C   C11       1.0  0.55724  0.97760  0.30317  1.0000
  C   C12       1.0  0.44276  0.97760  0.19683  1.0000
  C   C13       1.0  0.94276  0.52240  0.69683  1.0000
  C   C14       1.0  0.05724  0.52240  0.80317  1.0000
  C   C15       1.0  0.44276  0.02240  0.69683  1.0000
  C   C16       1.0  0.55724  0.02240  0.80317  1.0000
  H   H1        1.0  0.09620  0.51720  0.33940  1.0000
  H   H2        1.0  0.90380  0.51720  0.16060  1.0000
  H   H3        1.0  0.59620  0.01720  0.33940  1.0000
  H   H4        1.0  0.40380  0.01720  0.16060  1.0000
  H   H5        1.0  0.90380  0.48280  0.66060  1.0000
  H   H6        1.0  0.09620  0.48280  0.83940  1.0000
  H   H7        1.0  0.40380  0.98280  0.66060  1.0000
  H   H8        1.0  0.59620  0.98280  0.83940  1.0000
  C   C17       1.0  0.11350  0.27790  0.35582  1.0000
  C   C18       1.0  0.88650  0.27790  0.14418  1.0000
  C   C19       1.0  0.61350  0.77790  0.35582  1.0000
  C   C20       1.0  0.38650  0.77790  0.14418  1.0000
  C   C21       1.0  0.88650  0.72210  0.64418  1.0000
  C   C22       1.0  0.11350  0.72210  0.85582  1.0000
  C   C23       1.0  0.38650  0.22210  0.64418  1.0000
  C   C24       1.0  0.61350  0.22210  0.85582  1.0000
  N   N5        1.0  0.87655  0.97351  0.24463  1.0000
  N   N6        1.0  0.12345  0.97351  0.25537  1.0000
  N   N7        1.0  0.37655  0.47351  0.24463  1.0000
  N   N8        1.0  0.62345  0.47351  0.25537  1.0000
  N   N9        1.0  0.12345  0.02649  0.75537  1.0000
  N   N10       1.0  0.87655  0.02649  0.74463  1.0000
  N   N11       1.0  0.62345  0.52649  0.75537  1.0000
  N   N12       1.0  0.37655  0.52649  0.74463  1.0000
  C   C25       1.0  0.00000  0.53910  0.25000  1.0000
  C   C26       1.0  0.50000  0.03910  0.25000  1.0000
  C   C27       1.0  0.00000  0.46090  0.75000  1.0000
  C   C28       1.0  0.50000  0.96090  0.75000  1.0000
  H   H9        1.0  0.00000  0.62090  0.25000  1.0000
  H   H10       1.0  0.50000  0.12090  0.25000  1.0000
  H   H11       1.0  0.00000  0.37910  0.75000  1.0000
  H   H12       1.0  0.50000  0.87910  0.75000  1.0000
  C   C29       1.0  0.83625  0.00740  0.28883  1.0000
  C   C30       1.0  0.16375  0.00740  0.21117  1.0000
  C   C31       1.0  0.33625  0.50740  0.28883  1.0000
  C   C32       1.0  0.66375  0.50740  0.21117  1.0000
  C   C33       1.0  0.16375  0.99260  0.71117  1.0000
  C   C34       1.0  0.83625  0.99260  0.78883  1.0000
  C   C35       1.0  0.66375  0.49260  0.71117  1.0000
  C   C36       1.0  0.33625  0.49260  0.78883  1.0000
  C   C37       1.0  0.84814  0.88880  0.19565  1.0000
  C   C38       1.0  0.15186  0.88880  0.30435  1.0000
  C   C39       1.0  0.34814  0.38880  0.19565  1.0000
  C   C40       1.0  0.65186  0.38880  0.30435  1.0000
  C   C41       1.0  0.15186  0.11120  0.80435  1.0000
  C   C42       1.0  0.84814  0.11120  0.69565  1.0000
  C   C43       1.0  0.65186  0.61120  0.80435  1.0000
  C   C44       1.0  0.34814  0.61120  0.69565  1.0000
  C   C45       1.0  0.39150  0.33020  0.44990  1.0000
  C   C46       1.0  0.60850  0.33020  0.05010  1.0000
  C   C47       1.0  0.89150  0.83020  0.44990  1.0000
  C   C48       1.0  0.10850  0.83020  0.05010  1.0000
  C   C49       1.0  0.60850  0.66980  0.55010  1.0000
  C   C50       1.0  0.39150  0.66980  0.94990  1.0000
  C   C51       1.0  0.10850  0.16980  0.55010  1.0000
  C   C52       1.0  0.89150  0.16980  0.94990  1.0000
  H   H13       1.0  0.40490  0.39100  0.48390  1.0000
  H   H14       1.0  0.59510  0.39100  0.01610  1.0000
  H   H15       1.0  0.90490  0.89100  0.48390  1.0000
  H   H16       1.0  0.09510  0.89100  0.01610  1.0000
  H   H17       1.0  0.59510  0.60900  0.51610  1.0000
  H   H18       1.0  0.40490  0.60900  0.98390  1.0000
  H   H19       1.0  0.09510  0.10900  0.51610  1.0000
  H   H20       1.0  0.90490  0.10900  0.98390  1.0000
  N   N13       1.0  0.33309  0.25850  0.44230  1.0000
  N   N14       1.0  0.66691  0.25850  0.05770  1.0000
  N   N15       1.0  0.83309  0.75850  0.44230  1.0000
  N   N16       1.0  0.16691  0.75850  0.05770  1.0000
  N   N17       1.0  0.66691  0.74150  0.55770  1.0000
  N   N18       1.0  0.33309  0.74150  0.94230  1.0000
  N   N19       1.0  0.16691  0.24150  0.55770  1.0000
  N   N20       1.0  0.83309  0.24150  0.94230  1.0000
  C   C53       1.0  0.39400  0.21500  0.36260  1.0000
  C   C54       1.0  0.60600  0.21500  0.13740  1.0000
  C   C55       1.0  0.89400  0.71500  0.36260  1.0000
  C   C56       1.0  0.10600  0.71500  0.13740  1.0000
  C   C57       1.0  0.60600  0.78500  0.63740  1.0000
  C   C58       1.0  0.39400  0.78500  0.86260  1.0000
  C   C59       1.0  0.10600  0.28500  0.63740  1.0000
  C   C60       1.0  0.89400  0.28500  0.86260  1.0000
  H   H21       1.0  0.40810  0.17870  0.32550  1.0000
  H   H22       1.0  0.59190  0.17870  0.17450  1.0000
  H   H23       1.0  0.90810  0.67870  0.32550  1.0000
  H   H24       1.0  0.09190  0.67870  0.17450  1.0000
  H   H25       1.0  0.59190  0.82130  0.67450  1.0000
  H   H26       1.0  0.40810  0.82130  0.82550  1.0000
  H   H27       1.0  0.09190  0.32130  0.67450  1.0000
  H   H28       1.0  0.90810  0.32130  0.82550  1.0000
  C   C61       1.0  0.76360  0.95840  0.28320  1.0000
  C   C62       1.0  0.23640  0.95840  0.21680  1.0000
  C   C63       1.0  0.26360  0.45840  0.28320  1.0000
  C   C64       1.0  0.73640  0.45840  0.21680  1.0000
  C   C65       1.0  0.23640  0.04160  0.71680  1.0000
  C   C66       1.0  0.76360  0.04160  0.78320  1.0000
  C   C67       1.0  0.73640  0.54160  0.71680  1.0000
  C   C68       1.0  0.26360  0.54160  0.78320  1.0000
  H   H29       1.0  0.73600  0.98200  0.31420  1.0000
  H   H30       1.0  0.26400  0.98200  0.18580  1.0000
  H   H31       1.0  0.23600  0.48200  0.31420  1.0000
  H   H32       1.0  0.76400  0.48200  0.18580  1.0000
  H   H33       1.0  0.26400  0.01800  0.68580  1.0000
  H   H34       1.0  0.73600  0.01800  0.81420  1.0000
  H   H35       1.0  0.76400  0.51800  0.68580  1.0000
  H   H36       1.0  0.23600  0.51800  0.81420  1.0000
  C   C69       1.0  0.77590  0.83750  0.18680  1.0000
  C   C70       1.0  0.22410  0.83750  0.31320  1.0000
  C   C71       1.0  0.27590  0.33750  0.18680  1.0000
  C   C72       1.0  0.72410  0.33750  0.31320  1.0000
  C   C73       1.0  0.22410  0.16250  0.81320  1.0000
  C   C74       1.0  0.77590  0.16250  0.68680  1.0000
  C   C75       1.0  0.72410  0.66250  0.81320  1.0000
  C   C76       1.0  0.27590  0.66250  0.68680  1.0000
  H   H37       1.0  0.75640  0.77930  0.15180  1.0000
  H   H38       1.0  0.24360  0.77930  0.34820  1.0000
  H   H39       1.0  0.25640  0.27930  0.15180  1.0000
  H   H40       1.0  0.74360  0.27930  0.34820  1.0000
  H   H41       1.0  0.24360  0.22070  0.84820  1.0000
  H   H42       1.0  0.75640  0.22070  0.65180  1.0000
  H   H43       1.0  0.74360  0.72070  0.84820  1.0000
  H   H44       1.0  0.25640  0.72070  0.65180  1.0000
  C   C77       1.0  0.73320  0.87390  0.23060  1.0000
  C   C78       1.0  0.26680  0.87390  0.26940  1.0000
  C   C79       1.0  0.23320  0.37390  0.23060  1.0000
  C   C80       1.0  0.76680  0.37390  0.26940  1.0000
  C   C81       1.0  0.26680  0.12610  0.76940  1.0000
  C   C82       1.0  0.73320  0.12610  0.73060  1.0000
  C   C83       1.0  0.76680  0.62610  0.76940  1.0000
  C   C84       1.0  0.23320  0.62610  0.73060  1.0000
  H   H45       1.0  0.68380  0.84150  0.22480  1.0000
  H   H46       1.0  0.31620  0.84150  0.27520  1.0000
  H   H47       1.0  0.18380  0.34150  0.22480  1.0000
  H   H48       1.0  0.81620  0.34150  0.27520  1.0000
  H   H49       1.0  0.31620  0.15850  0.77520  1.0000
  H   H50       1.0  0.68380  0.15850  0.72480  1.0000
  H   H51       1.0  0.81620  0.65850  0.77520  1.0000
  H   H52       1.0  0.18380  0.65850  0.72480  1.0000
  O   O25       1.0  0.96094  0.92152  0.16091  1.0000
  O   O26       1.0  0.03906  0.92152  0.33909  1.0000
  O   O27       1.0  0.46094  0.42152  0.16091  1.0000
  O   O28       1.0  0.53906  0.42152  0.33909  1.0000
  O   O29       1.0  0.03906  0.07848  0.83909  1.0000
  O   O30       1.0  0.96094  0.07848  0.66091  1.0000
  O   O31       1.0  0.53906  0.57848  0.83909  1.0000
  O   O32       1.0  0.46094  0.57848  0.66091  1.0000
  C   C85       1.0  0.90191  0.85480  0.15229  1.0000
  C   C86       1.0  0.09809  0.85480  0.34771  1.0000
  C   C87       1.0  0.40191  0.35480  0.15229  1.0000
  C   C88       1.0  0.59809  0.35480  0.34771  1.0000
  C   C89       1.0  0.09809  0.14520  0.84771  1.0000
  C   C90       1.0  0.90191  0.14520  0.65229  1.0000
  C   C91       1.0  0.59809  0.64520  0.84771  1.0000
  C   C92       1.0  0.40191  0.64520  0.65229  1.0000
  O   O33       1.0  0.88705  0.76580  0.11443  1.0000
  O   O34       1.0  0.11295  0.76580  0.38557  1.0000
  O   O35       1.0  0.38705  0.26580  0.11443  1.0000
  O   O36       1.0  0.61295  0.26580  0.38557  1.0000
  O   O37       1.0  0.11295  0.23420  0.88557  1.0000
  O   O38       1.0  0.88705  0.23420  0.61443  1.0000
  O   O39       1.0  0.61295  0.73420  0.88557  1.0000
  O   O40       1.0  0.38705  0.73420  0.61443  1.0000
  C   C93       1.0  0.87688  0.10000  0.34331  1.0000
  C   C94       1.0  0.12312  0.10000  0.15669  1.0000
  C   C95       1.0  0.37688  0.60000  0.34331  1.0000
  C   C96       1.0  0.62312  0.60000  0.15669  1.0000
  C   C97       1.0  0.12312  0.90000  0.65669  1.0000
  C   C98       1.0  0.87688  0.90000  0.84331  1.0000
  C   C99       1.0  0.62312  0.40000  0.65669  1.0000
  C   C100      1.0  0.37688  0.40000  0.84331  1.0000
  O   O41       1.0  0.93949  0.14244  0.33680  1.0000
  O   O42       1.0  0.06051  0.14244  0.16320  1.0000
  O   O43       1.0  0.43949  0.64244  0.33680  1.0000
  O   O44       1.0  0.56051  0.64244  0.16320  1.0000
  O   O45       1.0  0.06051  0.85756  0.66320  1.0000
  O   O46       1.0  0.93949  0.85756  0.83680  1.0000
  O   O47       1.0  0.56051  0.35756  0.66320  1.0000
  O   O48       1.0  0.43949  0.35756  0.83680  1.0000
  O   O49       1.0  0.84775  0.13040  0.39046  1.0000
  O   O50       1.0  0.15225  0.13040  0.10954  1.0000
  O   O51       1.0  0.34775  0.63040  0.39046  1.0000
  O   O52       1.0  0.65225  0.63040  0.10954  1.0000
  O   O53       1.0  0.15225  0.86960  0.60954  1.0000
  O   O54       1.0  0.84775  0.86960  0.89046  1.0000
  O   O55       1.0  0.65225  0.36960  0.60954  1.0000
  O   O56       1.0  0.34775  0.36960  0.89046  1.0000
  C   C101      1.0  0.33310  0.18520  0.38580  1.0000
  C   C102      1.0  0.66690  0.18520  0.11420  1.0000
  C   C103      1.0  0.83310  0.68520  0.38580  1.0000
  C   C104      1.0  0.16690  0.68520  0.11420  1.0000
  C   C105      1.0  0.66690  0.81480  0.61420  1.0000
  C   C106      1.0  0.33310  0.81480  0.88580  1.0000
  C   C107      1.0  0.16690  0.31480  0.61420  1.0000
  C   C108      1.0  0.83310  0.31480  0.88580  1.0000
  H   H53       1.0  0.29700  0.12520  0.36670  1.0000
  H   H54       1.0  0.70300  0.12520  0.13330  1.0000
  H   H55       1.0  0.79700  0.62520  0.36670  1.0000
  H   H56       1.0  0.20300  0.62520  0.13330  1.0000
  H   H57       1.0  0.70300  0.87480  0.63330  1.0000
  H   H58       1.0  0.29700  0.87480  0.86670  1.0000
  H   H59       1.0  0.20300  0.37480  0.63330  1.0000
  H   H60       1.0  0.79700  0.37480  0.86670  1.0000
  N   N21       1.0  0.43000  0.30590  0.40280  1.0000
  N   N22       1.0  0.57000  0.30590  0.09720  1.0000
  N   N23       1.0  0.93000  0.80590  0.40280  1.0000
  N   N24       1.0  0.07000  0.80590  0.09720  1.0000
  N   N25       1.0  0.57000  0.69410  0.59720  1.0000
  N   N26       1.0  0.43000  0.69410  0.90280  1.0000
  N   N27       1.0  0.07000  0.19410  0.59720  1.0000
  N   N28       1.0  0.93000  0.19410  0.90280  1.0000
  H   H61       1.0  0.47070  0.34230  0.39910  1.0000
  H   H62       1.0  0.52930  0.34230  0.10090  1.0000
  H   H63       1.0  0.97070  0.84230  0.39910  1.0000
  H   H64       1.0  0.02930  0.84230  0.10090  1.0000
  H   H65       1.0  0.52930  0.65770  0.60090  1.0000
  H   H66       1.0  0.47070  0.65770  0.89910  1.0000
  H   H67       1.0  0.02930  0.15770  0.60090  1.0000
  H   H68       1.0  0.97070  0.15770  0.89910  1.0000
  H   H69       1.0  0.26620  0.48320  0.51910  1.0000
  H   H70       1.0  0.73380  0.48320  0.98090  1.0000
  H   H71       1.0  0.76620  0.98320  0.51910  1.0000
  H   H72       1.0  0.23380  0.98320  0.98090  1.0000
  H   H73       1.0  0.73380  0.51680  0.48090  1.0000
  H   H74       1.0  0.26620  0.51680  0.01910  1.0000
  H   H75       1.0  0.23380  0.01680  0.48090  1.0000
  H   H76       1.0  0.76620  0.01680  0.01910  1.0000
  H   H77       1.0  0.31830  0.42150  0.57540  1.0000
  H   H78       1.0  0.68170  0.42150  0.92460  1.0000
  H   H79       1.0  0.81830  0.92150  0.57540  1.0000
  H   H80       1.0  0.18170  0.92150  0.92460  1.0000
  H   H81       1.0  0.68170  0.57850  0.42460  1.0000
  H   H82       1.0  0.31830  0.57850  0.07540  1.0000
  H   H83       1.0  0.18170  0.07850  0.42460  1.0000
  H   H84       1.0  0.81830  0.07850  0.07540  1.0000
