data_image0
_chemical_formula_structural       C8H4C4H4C4H4C4H4C4H4C8H4C4H4C4H4C4H4C4H4C8H4C4H4C4H4C4H4C4H4C8H4C4H4C4H4C4H4C4H4C8H4C4H4C4H4C4H4C4H4C8H4C4H4C4H4C4H4C4H4C8H4C4H4C4H4C4H4C4H4C8H4C4H4C4H4C4H4C4H4C8H4C4H4C4H4C4H4C4H4Mo8O32Sn12
_chemical_formula_sum              "C216 H180 Mo8 O32 Sn12"
_cell_length_a       19.67
_cell_length_b       13.5313
_cell_length_c       21.766
_cell_angle_alpha    90
_cell_angle_beta     90
_cell_angle_gamma    90

_space_group_name_H-M_alt    "P 1"
_space_group_IT_number       1

loop_
  _space_group_symop_operation_xyz
  'x, y, z'

loop_
  _atom_site_type_symbol
  _atom_site_label
  _atom_site_symmetry_multiplicity
  _atom_site_fract_x
  _atom_site_fract_y
  _atom_site_fract_z
  _atom_site_occupancy
  C   C1        1.0  0.53570  0.97640  0.14310  1.0000
  C   C2        1.0  0.46430  0.02360  0.64310  1.0000
  C   C3        1.0  0.96430  0.97640  0.64310  1.0000
  C   C4        1.0  0.03570  0.02360  0.14310  1.0000
  C   C5        1.0  0.52290  0.88270  0.16740  1.0000
  C   C6        1.0  0.47710  0.11730  0.66740  1.0000
  C   C7        1.0  0.97710  0.88270  0.66740  1.0000
  C   C8        1.0  0.02290  0.11730  0.16740  1.0000
  H   H1        1.0  0.49850  0.83680  0.14460  1.0000
  H   H2        1.0  0.50150  0.16320  0.64460  1.0000
  H   H3        1.0  0.00150  0.83680  0.64460  1.0000
  H   H4        1.0  0.99850  0.16320  0.14460  1.0000
  C   C9        1.0  0.54650  0.85790  0.22540  1.0000
  C   C10       1.0  0.45350  0.14210  0.72540  1.0000
  C   C11       1.0  0.95350  0.85790  0.72540  1.0000
  C   C12       1.0  0.04650  0.14210  0.22540  1.0000
  H   H5        1.0  0.53670  0.79580  0.24150  1.0000
  H   H6        1.0  0.46330  0.20420  0.74150  1.0000
  H   H7        1.0  0.96330  0.79580  0.74150  1.0000
  H   H8        1.0  0.03670  0.20420  0.24150  1.0000
  C   C13       1.0  0.58440  0.92420  0.25970  1.0000
  C   C14       1.0  0.41560  0.07580  0.75970  1.0000
  C   C15       1.0  0.91560  0.92420  0.75970  1.0000
  C   C16       1.0  0.08440  0.07580  0.25970  1.0000
  H   H9        1.0  0.60070  0.90660  0.29830  1.0000
  H   H10       1.0  0.39930  0.09340  0.79830  1.0000
  H   H11       1.0  0.89930  0.90660  0.79830  1.0000
  H   H12       1.0  0.10070  0.09340  0.29830  1.0000
  C   C17       1.0  0.59750  0.01610  0.23600  1.0000
  C   C18       1.0  0.40250  0.98390  0.73600  1.0000
  C   C19       1.0  0.90250  0.01610  0.73600  1.0000
  C   C20       1.0  0.09750  0.98390  0.23600  1.0000
  H   H13       1.0  0.62320  0.06080  0.25880  1.0000
  H   H14       1.0  0.37680  0.93920  0.75880  1.0000
  H   H15       1.0  0.87680  0.06080  0.75880  1.0000
  H   H16       1.0  0.12320  0.93920  0.25880  1.0000
  C   C21       1.0  0.57310  0.04390  0.17850  1.0000
  C   C22       1.0  0.42690  0.95610  0.67850  1.0000
  C   C23       1.0  0.92690  0.04390  0.67850  1.0000
  C   C24       1.0  0.07310  0.95610  0.17850  1.0000
  H   H17       1.0  0.58150  0.10710  0.16360  1.0000
  H   H18       1.0  0.41850  0.89290  0.66360  1.0000
  H   H19       1.0  0.91850  0.10710  0.66360  1.0000
  H   H20       1.0  0.08150  0.89290  0.16360  1.0000
  C   C25       1.0  0.38770  0.01010  0.03280  1.0000
  C   C26       1.0  0.61230  0.98990  0.53280  1.0000
  C   C27       1.0  0.11230  0.01010  0.53280  1.0000
  C   C28       1.0  0.88770  0.98990  0.03280  1.0000
  C   C29       1.0  0.35450  0.09070  0.00440  1.0000
  C   C30       1.0  0.64550  0.90930  0.50440  1.0000
  C   C31       1.0  0.14550  0.09070  0.50440  1.0000
  C   C32       1.0  0.85450  0.90930  0.00440  1.0000
  H   H21       1.0  0.37840  0.14920  0.99800  1.0000
  H   H22       1.0  0.62160  0.85080  0.49800  1.0000
  H   H23       1.0  0.12160  0.14920  0.49800  1.0000
  H   H24       1.0  0.87840  0.85080  0.99800  1.0000
  C   C33       1.0  0.28740  0.08440  0.98600  1.0000
  C   C34       1.0  0.71260  0.91560  0.48600  1.0000
  C   C35       1.0  0.21260  0.08440  0.48600  1.0000
  C   C36       1.0  0.78740  0.91560  0.98600  1.0000
  H   H25       1.0  0.26710  0.13770  0.96640  1.0000
  H   H26       1.0  0.73290  0.86230  0.46640  1.0000
  H   H27       1.0  0.23290  0.13770  0.46640  1.0000
  H   H28       1.0  0.76710  0.86230  0.96640  1.0000
  C   C37       1.0  0.25050  0.99960  0.99660  1.0000
  C   C38       1.0  0.74950  0.00040  0.49660  1.0000
  C   C39       1.0  0.24950  0.99960  0.49660  1.0000
  C   C40       1.0  0.75050  0.00040  0.99660  1.0000
  H   H29       1.0  0.20510  0.99630  0.98490  1.0000
  H   H30       1.0  0.79490  0.00370  0.48490  1.0000
  H   H31       1.0  0.29490  0.99630  0.48490  1.0000
  H   H32       1.0  0.70510  0.00370  0.98490  1.0000
  C   C41       1.0  0.28130  0.91840  0.02510  1.0000
  C   C42       1.0  0.71870  0.08160  0.52510  1.0000
  C   C43       1.0  0.21870  0.91840  0.52510  1.0000
  C   C44       1.0  0.78130  0.08160  0.02510  1.0000
  H   H33       1.0  0.25670  0.86110  0.03310  1.0000
  H   H34       1.0  0.74330  0.13890  0.53310  1.0000
  H   H35       1.0  0.24330  0.86110  0.53310  1.0000
  H   H36       1.0  0.75670  0.13890  0.03310  1.0000
  C   C45       1.0  0.34990  0.92520  0.04140  1.0000
  C   C46       1.0  0.65010  0.07480  0.54140  1.0000
  C   C47       1.0  0.15010  0.92520  0.54140  1.0000
  C   C48       1.0  0.84990  0.07480  0.04140  1.0000
  H   H37       1.0  0.37100  0.87030  0.05870  1.0000
  H   H38       1.0  0.62900  0.12970  0.55870  1.0000
  H   H39       1.0  0.12900  0.87030  0.55870  1.0000
  H   H40       1.0  0.87100  0.12970  0.05870  1.0000
  C   C49       1.0  0.55400  0.09540  0.99000  1.0000
  C   C50       1.0  0.44600  0.90460  0.49000  1.0000
  C   C51       1.0  0.94600  0.09540  0.49000  1.0000
  C   C52       1.0  0.05400  0.90460  0.99000  1.0000
  C   C53       1.0  0.54890  0.07090  0.92800  1.0000
  C   C54       1.0  0.45110  0.92910  0.42800  1.0000
  C   C55       1.0  0.95110  0.07090  0.42800  1.0000
  C   C56       1.0  0.04890  0.92910  0.92800  1.0000
  H   H41       1.0  0.52110  0.01850  0.91630  1.0000
  H   H42       1.0  0.47890  0.98150  0.41630  1.0000
  H   H43       1.0  0.97890  0.01850  0.41630  1.0000
  H   H44       1.0  0.02110  0.98150  0.91630  1.0000
  C   C57       1.0  0.58400  0.12260  0.88380  1.0000
  C   C58       1.0  0.41600  0.87740  0.38380  1.0000
  C   C59       1.0  0.91600  0.12260  0.38380  1.0000
  C   C60       1.0  0.08400  0.87740  0.88380  1.0000
  H   H45       1.0  0.57960  0.10580  0.84250  1.0000
  H   H46       1.0  0.42040  0.89420  0.34250  1.0000
  H   H47       1.0  0.92040  0.10580  0.34250  1.0000
  H   H48       1.0  0.07960  0.89420  0.84250  1.0000
  C   C61       1.0  0.62570  0.19910  0.90110  1.0000
  C   C62       1.0  0.37430  0.80090  0.40110  1.0000
  C   C63       1.0  0.87430  0.19910  0.40110  1.0000
  C   C64       1.0  0.12570  0.80090  0.90110  1.0000
  H   H49       1.0  0.64900  0.23460  0.87120  1.0000
  H   H50       1.0  0.35100  0.76540  0.37120  1.0000
  H   H51       1.0  0.85100  0.23460  0.37120  1.0000
  H   H52       1.0  0.14900  0.76540  0.87120  1.0000
  C   C65       1.0  0.63340  0.22420  0.96210  1.0000
  C   C66       1.0  0.36660  0.77580  0.46210  1.0000
  C   C67       1.0  0.86660  0.22420  0.46210  1.0000
  C   C68       1.0  0.13340  0.77580  0.96210  1.0000
  H   H53       1.0  0.66290  0.27470  0.97340  1.0000
  H   H54       1.0  0.33710  0.72530  0.47340  1.0000
  H   H55       1.0  0.83710  0.27470  0.47340  1.0000
  H   H56       1.0  0.16290  0.72530  0.97340  1.0000
  C   C69       1.0  0.59710  0.17360  0.00620  1.0000
  C   C70       1.0  0.40290  0.82640  0.50620  1.0000
  C   C71       1.0  0.90290  0.17360  0.50620  1.0000
  C   C72       1.0  0.09710  0.82640  0.00620  1.0000
  H   H57       1.0  0.60120  0.19170  0.04720  1.0000
  H   H58       1.0  0.39880  0.80830  0.54720  1.0000
  H   H59       1.0  0.89880  0.19170  0.54720  1.0000
  H   H60       1.0  0.10120  0.80830  0.04720  1.0000
  C   C73       1.0  0.45240  0.76000  0.82010  1.0000
  C   C74       1.0  0.54760  0.24000  0.32010  1.0000
  C   C75       1.0  0.04760  0.76000  0.32010  1.0000
  C   C76       1.0  0.95240  0.24000  0.82010  1.0000
  C   C77       1.0  0.41110  0.71480  0.77670  1.0000
  C   C78       1.0  0.58890  0.28520  0.27670  1.0000
  C   C79       1.0  0.08890  0.71480  0.27670  1.0000
  C   C80       1.0  0.91110  0.28520  0.77670  1.0000
  H   H61       1.0  0.43070  0.68220  0.74350  1.0000
  H   H62       1.0  0.56930  0.31780  0.24350  1.0000
  H   H63       1.0  0.06930  0.68220  0.24350  1.0000
  H   H64       1.0  0.93070  0.31780  0.74350  1.0000
  C   C81       1.0  0.33980  0.71790  0.78230  1.0000
  C   C82       1.0  0.66020  0.28210  0.28230  1.0000
  C   C83       1.0  0.16020  0.71790  0.28230  1.0000
  C   C84       1.0  0.83980  0.28210  0.78230  1.0000
  H   H65       1.0  0.31260  0.68470  0.75420  1.0000
  H   H66       1.0  0.68740  0.31530  0.25420  1.0000
  H   H67       1.0  0.18740  0.68470  0.25420  1.0000
  H   H68       1.0  0.81260  0.31530  0.75420  1.0000
  C   C85       1.0  0.31110  0.76920  0.82880  1.0000
  C   C86       1.0  0.68890  0.23080  0.32880  1.0000
  C   C87       1.0  0.18890  0.76920  0.32880  1.0000
  C   C88       1.0  0.81110  0.23080  0.82880  1.0000
  H   H69       1.0  0.26400  0.77300  0.83100  1.0000
  H   H70       1.0  0.73600  0.22700  0.33100  1.0000
  H   H71       1.0  0.23600  0.77300  0.33100  1.0000
  H   H72       1.0  0.76400  0.22700  0.83100  1.0000
  C   C89       1.0  0.34970  0.81620  0.87300  1.0000
  C   C90       1.0  0.65030  0.18380  0.37300  1.0000
  C   C91       1.0  0.15030  0.81620  0.37300  1.0000
  C   C92       1.0  0.84970  0.18380  0.87300  1.0000
  H   H73       1.0  0.32910  0.85010  0.90510  1.0000
  H   H74       1.0  0.67090  0.14990  0.40510  1.0000
  H   H75       1.0  0.17090  0.85010  0.40510  1.0000
  H   H76       1.0  0.82910  0.14990  0.90510  1.0000
  C   C93       1.0  0.42040  0.81150  0.86830  1.0000
  C   C94       1.0  0.57960  0.18850  0.36830  1.0000
  C   C95       1.0  0.07960  0.81150  0.36830  1.0000
  C   C96       1.0  0.92040  0.18850  0.86830  1.0000
  H   H77       1.0  0.44690  0.84310  0.89770  1.0000
  H   H78       1.0  0.55310  0.15690  0.39770  1.0000
  H   H79       1.0  0.05310  0.84310  0.39770  1.0000
  H   H80       1.0  0.94690  0.15690  0.89770  1.0000
  C   C97       1.0  0.61680  0.62330  0.82270  1.0000
  C   C98       1.0  0.38320  0.37670  0.32270  1.0000
  C   C99       1.0  0.88320  0.62330  0.32270  1.0000
  C   C100      1.0  0.11680  0.37670  0.82270  1.0000
  C   C101      1.0  0.60210  0.55800  0.86720  1.0000
  C   C102      1.0  0.39790  0.44200  0.36720  1.0000
  C   C103      1.0  0.89790  0.55800  0.36720  1.0000
  C   C104      1.0  0.10210  0.44200  0.86720  1.0000
  H   H81       1.0  0.56440  0.56880  0.89220  1.0000
  H   H82       1.0  0.43560  0.43120  0.39220  1.0000
  H   H83       1.0  0.93560  0.56880  0.39220  1.0000
  H   H84       1.0  0.06440  0.43120  0.89220  1.0000
  C   C105      1.0  0.64190  0.47480  0.87670  1.0000
  C   C106      1.0  0.35810  0.52520  0.37670  1.0000
  C   C107      1.0  0.85810  0.47480  0.37670  1.0000
  C   C108      1.0  0.14190  0.52520  0.87670  1.0000
  H   H85       1.0  0.63020  0.42980  0.90720  1.0000
  H   H86       1.0  0.36980  0.57020  0.40720  1.0000
  H   H87       1.0  0.86980  0.42980  0.40720  1.0000
  H   H88       1.0  0.13020  0.57020  0.90720  1.0000
  C   C109      1.0  0.69850  0.45860  0.84110  1.0000
  C   C110      1.0  0.30150  0.54140  0.34110  1.0000
  C   C111      1.0  0.80150  0.45860  0.34110  1.0000
  C   C112      1.0  0.19850  0.54140  0.84110  1.0000
  H   H89       1.0  0.72670  0.40480  0.84890  1.0000
  H   H90       1.0  0.27330  0.59520  0.34890  1.0000
  H   H91       1.0  0.77330  0.40480  0.34890  1.0000
  H   H92       1.0  0.22670  0.59520  0.84890  1.0000
  C   C113      1.0  0.71290  0.52210  0.79430  1.0000
  C   C114      1.0  0.28710  0.47790  0.29430  1.0000
  C   C115      1.0  0.78710  0.52210  0.29430  1.0000
  C   C116      1.0  0.21290  0.47790  0.79430  1.0000
  H   H93       1.0  0.74980  0.51000  0.76860  1.0000
  H   H94       1.0  0.25020  0.49000  0.26860  1.0000
  H   H95       1.0  0.75020  0.51000  0.26860  1.0000
  H   H96       1.0  0.24980  0.49000  0.76860  1.0000
  C   C117      1.0  0.67260  0.60500  0.78480  1.0000
  C   C118      1.0  0.32740  0.39500  0.28480  1.0000
  C   C119      1.0  0.82740  0.60500  0.28480  1.0000
  C   C120      1.0  0.17260  0.39500  0.78480  1.0000
  H   H97       1.0  0.68280  0.64850  0.75300  1.0000
  H   H98       1.0  0.31720  0.35150  0.25300  1.0000
  H   H99       1.0  0.81720  0.64850  0.25300  1.0000
  H   H100      1.0  0.18280  0.35150  0.75300  1.0000
  C   C121      1.0  0.62110  0.88380  0.79040  1.0000
  C   C122      1.0  0.37890  0.11620  0.29040  1.0000
  C   C123      1.0  0.87890  0.88380  0.29040  1.0000
  C   C124      1.0  0.12110  0.11620  0.79040  1.0000
  C   C125      1.0  0.60450  0.94690  0.74050  1.0000
  C   C126      1.0  0.39550  0.05310  0.24050  1.0000
  C   C127      1.0  0.89550  0.94690  0.24050  1.0000
  C   C128      1.0  0.10450  0.05310  0.74050  1.0000
  H   H101      1.0  0.56540  0.93500  0.71750  1.0000
  H   H102      1.0  0.43460  0.06500  0.21750  1.0000
  H   H103      1.0  0.93460  0.93500  0.21750  1.0000
  H   H104      1.0  0.06540  0.06500  0.71750  1.0000
  C   C129      1.0  0.64620  0.02620  0.72570  1.0000
  C   C130      1.0  0.35380  0.97380  0.22570  1.0000
  C   C131      1.0  0.85380  0.02620  0.22570  1.0000
  C   C132      1.0  0.14620  0.97380  0.72570  1.0000
  H   H105      1.0  0.63420  0.06810  0.69370  1.0000
  H   H106      1.0  0.36580  0.93190  0.19370  1.0000
  H   H107      1.0  0.86580  0.06810  0.19370  1.0000
  H   H108      1.0  0.13420  0.93190  0.69370  1.0000
  C   C133      1.0  0.70510  0.04330  0.75810  1.0000
  C   C134      1.0  0.29490  0.95670  0.25810  1.0000
  C   C135      1.0  0.79490  0.04330  0.25810  1.0000
  C   C136      1.0  0.20510  0.95670  0.75810  1.0000
  H   H109      1.0  0.73380  0.09490  0.74690  1.0000
  H   H110      1.0  0.26620  0.90510  0.24690  1.0000
  H   H111      1.0  0.76620  0.09490  0.24690  1.0000
  H   H112      1.0  0.23380  0.90510  0.74690  1.0000
  C   C137      1.0  0.72130  0.98320  0.80730  1.0000
  C   C138      1.0  0.27870  0.01680  0.30730  1.0000
  C   C139      1.0  0.77870  0.98320  0.30730  1.0000
  C   C140      1.0  0.22130  0.01680  0.80730  1.0000
  H   H113      1.0  0.76060  0.99580  0.82980  1.0000
  H   H114      1.0  0.23940  0.00420  0.32980  1.0000
  H   H115      1.0  0.73940  0.99580  0.32980  1.0000
  H   H116      1.0  0.26060  0.00420  0.82980  1.0000
  C   C141      1.0  0.67980  0.90420  0.82370  1.0000
  C   C142      1.0  0.32020  0.09580  0.32370  1.0000
  C   C143      1.0  0.82020  0.90420  0.32370  1.0000
  C   C144      1.0  0.17980  0.09580  0.82370  1.0000
  H   H117      1.0  0.69140  0.86480  0.85710  1.0000
  H   H118      1.0  0.30860  0.13520  0.35710  1.0000
  H   H119      1.0  0.80860  0.86480  0.35710  1.0000
  H   H120      1.0  0.19140  0.13520  0.85710  1.0000
  C   C145      1.0  0.46340  0.46660  0.97720  1.0000
  C   C146      1.0  0.53660  0.53340  0.47720  1.0000
  C   C147      1.0  0.03660  0.46660  0.47720  1.0000
  C   C148      1.0  0.96340  0.53340  0.97720  1.0000
  C   C149      1.0  0.42270  0.53070  0.94280  1.0000
  C   C150      1.0  0.57730  0.46930  0.44280  1.0000
  C   C151      1.0  0.07730  0.53070  0.44280  1.0000
  C   C152      1.0  0.92270  0.46930  0.94280  1.0000
  H   H121      1.0  0.41940  0.59680  0.95420  1.0000
  H   H122      1.0  0.58060  0.40320  0.45420  1.0000
  H   H123      1.0  0.08060  0.59680  0.45420  1.0000
  H   H124      1.0  0.91940  0.40320  0.95420  1.0000
  C   C153      1.0  0.38710  0.49710  0.89240  1.0000
  C   C154      1.0  0.61290  0.50290  0.39240  1.0000
  C   C155      1.0  0.11290  0.49710  0.39240  1.0000
  C   C156      1.0  0.88710  0.50290  0.89240  1.0000
  H   H125      1.0  0.35980  0.54080  0.87050  1.0000
  H   H126      1.0  0.64020  0.45920  0.37050  1.0000
  H   H127      1.0  0.14020  0.54080  0.37050  1.0000
  H   H128      1.0  0.85980  0.45920  0.87050  1.0000
  C   C157      1.0  0.39140  0.40100  0.87390  1.0000
  C   C158      1.0  0.60860  0.59900  0.37390  1.0000
  C   C159      1.0  0.10860  0.40100  0.37390  1.0000
  C   C160      1.0  0.89140  0.59900  0.87390  1.0000
  H   H129      1.0  0.36740  0.37920  0.83970  1.0000
  H   H130      1.0  0.63260  0.62080  0.33970  1.0000
  H   H131      1.0  0.13260  0.37920  0.33970  1.0000
  H   H132      1.0  0.86740  0.62080  0.83970  1.0000
  C   C161      1.0  0.43130  0.33720  0.90650  1.0000
  C   C162      1.0  0.56870  0.66280  0.40650  1.0000
  C   C163      1.0  0.06870  0.33720  0.40650  1.0000
  C   C164      1.0  0.93130  0.66280  0.90650  1.0000
  H   H133      1.0  0.43560  0.27200  0.89350  1.0000
  H   H134      1.0  0.56440  0.72800  0.39350  1.0000
  H   H135      1.0  0.06440  0.27200  0.39350  1.0000
  H   H136      1.0  0.93560  0.72800  0.89350  1.0000
  C   C165      1.0  0.46560  0.36860  0.95870  1.0000
  C   C166      1.0  0.53440  0.63140  0.45870  1.0000
  C   C167      1.0  0.03440  0.36860  0.45870  1.0000
  C   C168      1.0  0.96560  0.63140  0.95870  1.0000
  H   H137      1.0  0.49050  0.32310  0.98160  1.0000
  H   H138      1.0  0.50950  0.67690  0.48160  1.0000
  H   H139      1.0  0.00950  0.32310  0.48160  1.0000
  H   H140      1.0  0.99050  0.67690  0.98160  1.0000
  C   C169      1.0  0.62550  0.49430  0.06400  1.0000
  C   C170      1.0  0.37450  0.50570  0.56400  1.0000
  C   C171      1.0  0.87450  0.49430  0.56400  1.0000
  C   C172      1.0  0.12550  0.50570  0.06400  1.0000
  C   C173      1.0  0.67120  0.54410  0.02650  1.0000
  C   C174      1.0  0.32880  0.45590  0.52650  1.0000
  C   C175      1.0  0.82880  0.54410  0.52650  1.0000
  C   C176      1.0  0.17120  0.45590  0.02650  1.0000
  H   H141      1.0  0.65440  0.58480  0.99560  1.0000
  H   H142      1.0  0.34560  0.41520  0.49560  1.0000
  H   H143      1.0  0.84560  0.58480  0.49560  1.0000
  H   H144      1.0  0.15440  0.41520  0.99560  1.0000
  C   C177      1.0  0.74150  0.53510  0.03380  1.0000
  C   C178      1.0  0.25850  0.46490  0.53380  1.0000
  C   C179      1.0  0.75850  0.53510  0.53380  1.0000
  C   C180      1.0  0.24150  0.46490  0.03380  1.0000
  H   H145      1.0  0.77070  0.56930  0.00790  1.0000
  H   H146      1.0  0.22930  0.43070  0.50790  1.0000
  H   H147      1.0  0.72930  0.56930  0.50790  1.0000
  H   H148      1.0  0.27070  0.43070  0.00790  1.0000
  C   C181      1.0  0.76710  0.47630  0.07890  1.0000
  C   C182      1.0  0.23290  0.52370  0.57890  1.0000
  C   C183      1.0  0.73290  0.47630  0.57890  1.0000
  C   C184      1.0  0.26710  0.52370  0.07890  1.0000
  H   H149      1.0  0.81380  0.47040  0.08410  1.0000
  H   H150      1.0  0.18620  0.52960  0.58410  1.0000
  H   H151      1.0  0.68620  0.47040  0.58410  1.0000
  H   H152      1.0  0.31380  0.52960  0.08410  1.0000
  C   C185      1.0  0.72290  0.42530  0.11680  1.0000
  C   C186      1.0  0.27710  0.57470  0.61680  1.0000
  C   C187      1.0  0.77710  0.42530  0.61680  1.0000
  C   C188      1.0  0.22290  0.57470  0.11680  1.0000
  H   H153      1.0  0.74050  0.38560  0.14780  1.0000
  H   H154      1.0  0.25950  0.61440  0.64780  1.0000
  H   H155      1.0  0.75950  0.38560  0.64780  1.0000
  H   H156      1.0  0.24050  0.61440  0.14780  1.0000
  C   C189      1.0  0.65310  0.43190  0.10970  1.0000
  C   C190      1.0  0.34690  0.56810  0.60970  1.0000
  C   C191      1.0  0.84690  0.43190  0.60970  1.0000
  C   C192      1.0  0.15310  0.56810  0.10970  1.0000
  H   H157      1.0  0.62450  0.39550  0.13510  1.0000
  H   H158      1.0  0.37550  0.60450  0.63510  1.0000
  H   H159      1.0  0.87550  0.39550  0.63510  1.0000
  H   H160      1.0  0.12450  0.60450  0.13510  1.0000
  C   C193      1.0  0.46470  0.59220  0.12940  1.0000
  C   C194      1.0  0.53530  0.40780  0.62940  1.0000
  C   C195      1.0  0.03530  0.59220  0.62940  1.0000
  C   C196      1.0  0.96470  0.40780  0.12940  1.0000
  C   C197      1.0  0.47660  0.56690  0.19080  1.0000
  C   C198      1.0  0.52340  0.43310  0.69080  1.0000
  C   C199      1.0  0.02340  0.56690  0.69080  1.0000
  C   C200      1.0  0.97660  0.43310  0.19080  1.0000
  H   H161      1.0  0.50760  0.51740  0.20030  1.0000
  H   H162      1.0  0.49240  0.48260  0.70030  1.0000
  H   H163      1.0  0.99240  0.51740  0.70030  1.0000
  H   H164      1.0  0.00760  0.48260  0.20030  1.0000
  C   C201      1.0  0.44190  0.61600  0.23830  1.0000
  C   C202      1.0  0.55810  0.38400  0.73830  1.0000
  C   C203      1.0  0.05810  0.61600  0.73830  1.0000
  C   C204      1.0  0.94190  0.38400  0.23830  1.0000
  H   H165      1.0  0.45240  0.60280  0.27910  1.0000
  H   H166      1.0  0.54760  0.39720  0.77910  1.0000
  H   H167      1.0  0.04760  0.60280  0.77910  1.0000
  H   H168      1.0  0.95240  0.39720  0.27910  1.0000
  C   C205      1.0  0.39200  0.68410  0.22380  1.0000
  C   C206      1.0  0.60800  0.31590  0.72380  1.0000
  C   C207      1.0  0.10800  0.68410  0.72380  1.0000
  C   C208      1.0  0.89200  0.31590  0.22380  1.0000
  H   H169      1.0  0.36650  0.71280  0.25500  1.0000
  H   H170      1.0  0.63350  0.28720  0.75500  1.0000
  H   H171      1.0  0.13350  0.71280  0.75500  1.0000
  H   H172      1.0  0.86650  0.28720  0.25500  1.0000
  C   C209      1.0  0.37970  0.70990  0.16310  1.0000
  C   C210      1.0  0.62030  0.29010  0.66310  1.0000
  C   C211      1.0  0.12030  0.70990  0.66310  1.0000
  C   C212      1.0  0.87970  0.29010  0.16310  1.0000
  H   H173      1.0  0.34740  0.75790  0.15390  1.0000
  H   H174      1.0  0.65260  0.24210  0.65390  1.0000
  H   H175      1.0  0.15260  0.75790  0.65390  1.0000
  H   H176      1.0  0.84740  0.24210  0.15390  1.0000
  C   C213      1.0  0.41580  0.66350  0.11580  1.0000
  C   C214      1.0  0.58420  0.33650  0.61580  1.0000
  C   C215      1.0  0.08420  0.66350  0.61580  1.0000
  C   C216      1.0  0.91580  0.33650  0.11580  1.0000
  H   H177      1.0  0.40710  0.68030  0.07510  1.0000
  H   H178      1.0  0.59290  0.31970  0.57510  1.0000
  H   H179      1.0  0.09290  0.68030  0.57510  1.0000
  H   H180      1.0  0.90710  0.31970  0.07510  1.0000
  Mo  Mo1       1.0  0.56465  0.78060  0.99120  1.0000
  Mo  Mo2       1.0  0.43535  0.21940  0.49120  1.0000
  Mo  Mo3       1.0  0.93535  0.78060  0.49120  1.0000
  Mo  Mo4       1.0  0.06465  0.21940  0.99120  1.0000
  Mo  Mo5       1.0  0.55536  0.71892  0.63094  1.0000
  Mo  Mo6       1.0  0.44464  0.28108  0.13094  1.0000
  Mo  Mo7       1.0  0.94464  0.71892  0.13094  1.0000
  Mo  Mo8       1.0  0.05536  0.28108  0.63094  1.0000
  O   O1        1.0  0.50790  0.87410  0.01780  1.0000
  O   O2        1.0  0.49210  0.12590  0.51780  1.0000
  O   O3        1.0  0.99210  0.87410  0.51780  1.0000
  O   O4        1.0  0.00790  0.12590  0.01780  1.0000
  O   O5        1.0  0.57220  0.78830  0.91030  1.0000
  O   O6        1.0  0.42780  0.21170  0.41030  1.0000
  O   O7        1.0  0.92780  0.78830  0.41030  1.0000
  O   O8        1.0  0.07220  0.21170  0.91030  1.0000
  O   O9        1.0  0.53230  0.66360  0.01170  1.0000
  O   O10       1.0  0.46770  0.33640  0.51170  1.0000
  O   O11       1.0  0.96770  0.66360  0.51170  1.0000
  O   O12       1.0  0.03230  0.33640  0.01170  1.0000
  O   O13       1.0  0.64330  0.79720  0.02410  1.0000
  O   O14       1.0  0.35670  0.20280  0.52410  1.0000
  O   O15       1.0  0.85670  0.79720  0.52410  1.0000
  O   O16       1.0  0.14330  0.20280  0.02410  1.0000
  O   O17       1.0  0.54900  0.72770  0.71170  1.0000
  O   O18       1.0  0.45100  0.27230  0.21170  1.0000
  O   O19       1.0  0.95100  0.72770  0.21170  1.0000
  O   O20       1.0  0.04900  0.27230  0.71170  1.0000
  O   O21       1.0  0.49970  0.37570  0.10420  1.0000
  O   O22       1.0  0.50030  0.62430  0.60420  1.0000
  O   O23       1.0  0.00030  0.37570  0.60420  1.0000
  O   O24       1.0  0.99970  0.62430  0.10420  1.0000
  O   O25       1.0  0.47060  0.16860  0.09890  1.0000
  O   O26       1.0  0.52940  0.83140  0.59890  1.0000
  O   O27       1.0  0.02940  0.16860  0.59890  1.0000
  O   O28       1.0  0.97060  0.83140  0.09890  1.0000
  O   O29       1.0  0.63790  0.69520  0.61060  1.0000
  O   O30       1.0  0.36210  0.30480  0.11060  1.0000
  O   O31       1.0  0.86210  0.69520  0.11060  1.0000
  O   O32       1.0  0.13790  0.30480  0.61060  1.0000
  Sn  Sn1       1.0  0.49256  0.02171  0.05681  1.0000
  Sn  Sn2       1.0  0.50744  0.97829  0.55681  1.0000
  Sn  Sn3       1.0  0.00744  0.02171  0.55681  1.0000
  Sn  Sn4       1.0  0.99256  0.97829  0.05681  1.0000
  Sn  Sn5       1.0  0.56055  0.75727  0.81107  1.0000
  Sn  Sn6       1.0  0.43945  0.24273  0.31107  1.0000
  Sn  Sn7       1.0  0.93945  0.75727  0.31107  1.0000
  Sn  Sn8       1.0  0.06055  0.24273  0.81107  1.0000
  Sn  Sn9       1.0  0.51758  0.51655  0.05657  1.0000
  Sn  Sn10      1.0  0.48242  0.48345  0.55657  1.0000
  Sn  Sn11      1.0  0.98242  0.51655  0.55657  1.0000
  Sn  Sn12      1.0  0.01758  0.48345  0.05657  1.0000
