data_image0
_chemical_formula_structural       Zn8C14H2C6H2C4H2C4H2C6H2C6H2C6H2C6H2C4H2C4H2C6H2C6H2N8H4N2H4N8H4N2H4O34H4
_chemical_formula_sum              "Zn8 C72 H44 N20 O34"
_cell_length_a       8.23
_cell_length_b       21.274
_cell_length_c       14.195
_cell_angle_alpha    90
_cell_angle_beta     105.466
_cell_angle_gamma    90

_space_group_name_H-M_alt    "P 1"
_space_group_IT_number       1

loop_
  _space_group_symop_operation_xyz
  'x, y, z'

loop_
  _atom_site_type_symbol
  _atom_site_label
  _atom_site_symmetry_multiplicity
  _atom_site_fract_x
  _atom_site_fract_y
  _atom_site_fract_z
  _atom_site_occupancy
  Zn  Zn1       1.0  0.31600  0.16525  0.43011  1.0000
  Zn  Zn2       1.0  0.31600  0.83475  0.93011  1.0000
  Zn  Zn3       1.0  0.38240  0.33110  0.40427  1.0000
  Zn  Zn4       1.0  0.38240  0.66890  0.90427  1.0000
  Zn  Zn5       1.0  0.09910  0.22434  0.99641  1.0000
  Zn  Zn6       1.0  0.09910  0.77566  0.49641  1.0000
  Zn  Zn7       1.0  0.64556  0.27239  0.82811  1.0000
  Zn  Zn8       1.0  0.64556  0.72761  0.32811  1.0000
  C   C1        1.0  0.23640  0.18410  0.21370  1.0000
  C   C2        1.0  0.23640  0.81590  0.71370  1.0000
  C   C3        1.0  0.22900  0.28370  0.20090  1.0000
  C   C4        1.0  0.22900  0.71630  0.70090  1.0000
  C   C5        1.0  0.49600  0.21310  0.62760  1.0000
  C   C6        1.0  0.49600  0.78690  0.12760  1.0000
  C   C7        1.0  0.46100  0.31210  0.62060  1.0000
  C   C8        1.0  0.46100  0.68790  0.12060  1.0000
  C   C9        1.0  0.46200  0.04110  0.42810  1.0000
  C   C10       1.0  0.46200  0.95890  0.92810  1.0000
  C   C11       1.0  0.57440  0.99130  0.48300  1.0000
  C   C12       1.0  0.57440  0.00870  0.98300  1.0000
  C   C13       1.0  0.58500  0.93330  0.44300  1.0000
  C   C14       1.0  0.58500  0.06670  0.94300  1.0000
  H   H1        1.0  0.51880  0.92310  0.38090  1.0000
  H   H2        1.0  0.51880  0.07690  0.88090  1.0000
  C   C15       1.0  0.70100  0.88900  0.50080  1.0000
  C   C16       1.0  0.70100  0.11100  0.00080  1.0000
  C   C17       1.0  0.72100  0.82430  0.45960  1.0000
  C   C18       1.0  0.72100  0.17570  0.95960  1.0000
  C   C19       1.0  0.79740  0.90320  0.59190  1.0000
  C   C20       1.0  0.79740  0.09680  0.09190  1.0000
  H   H3        1.0  0.87430  0.87380  0.62660  1.0000
  H   H4        1.0  0.87430  0.12620  0.12660  1.0000
  C   C21       1.0  0.78180  0.96120  0.63400  1.0000
  C   C22       1.0  0.78180  0.03880  0.13400  1.0000
  C   C23       1.0  0.67000  0.00370  0.58030  1.0000
  C   C24       1.0  0.67000  0.99630  0.08030  1.0000
  H   H5        1.0  0.65670  0.04210  0.60850  1.0000
  H   H6        1.0  0.65670  0.95790  0.10850  1.0000
  C   C25       1.0  0.87900  0.97670  0.73880  1.0000
  C   C26       1.0  0.87900  0.02330  0.23880  1.0000
  C   C27       1.0  0.92160  0.92880  0.80860  1.0000
  C   C28       1.0  0.92160  0.07120  0.30860  1.0000
  H   H7        1.0  0.90240  0.88700  0.79010  1.0000
  H   H8        1.0  0.90240  0.11300  0.29010  1.0000
  C   C29       1.0  0.99140  0.94430  0.90380  1.0000
  C   C30       1.0  0.99140  0.05570  0.40380  1.0000
  C   C31       1.0  0.03100  0.89290  0.98050  1.0000
  C   C32       1.0  0.03100  0.10710  0.48050  1.0000
  C   C33       1.0  0.03200  0.00570  0.93200  1.0000
  C   C34       1.0  0.03200  0.99430  0.43200  1.0000
  H   H9        1.0  0.08180  0.01510  0.99730  1.0000
  H   H10       1.0  0.08180  0.98490  0.49730  1.0000
  C   C35       1.0  0.99900  0.05250  0.86470  1.0000
  C   C36       1.0  0.99900  0.94750  0.36470  1.0000
  C   C37       1.0  0.03900  0.11980  0.89180  1.0000
  C   C38       1.0  0.03900  0.88020  0.39180  1.0000
  C   C39       1.0  0.92100  0.03790  0.76580  1.0000
  C   C40       1.0  0.92100  0.96210  0.26580  1.0000
  H   H11       1.0  0.89860  0.06970  0.71910  1.0000
  H   H12       1.0  0.89860  0.93030  0.21910  1.0000
  C   C41       1.0  0.64100  0.40510  0.35790  1.0000
  C   C42       1.0  0.64100  0.59490  0.85790  1.0000
  C   C43       1.0  0.67140  0.45600  0.43430  1.0000
  C   C44       1.0  0.67140  0.54400  0.93430  1.0000
  C   C45       1.0  0.62900  0.51890  0.40880  1.0000
  C   C46       1.0  0.62900  0.48110  0.90880  1.0000
  H   H13       1.0  0.58100  0.53050  0.34420  1.0000
  H   H14       1.0  0.58100  0.46950  0.84420  1.0000
  C   C47       1.0  0.66100  0.56320  0.48360  1.0000
  C   C48       1.0  0.66100  0.43680  0.98360  1.0000
  C   C49       1.0  0.59800  0.63070  0.45630  1.0000
  C   C50       1.0  0.59800  0.36930  0.95630  1.0000
  C   C51       1.0  0.73500  0.54830  0.57640  1.0000
  C   C52       1.0  0.73500  0.45170  0.07640  1.0000
  H   H15       1.0  0.74760  0.57900  0.62440  1.0000
  H   H16       1.0  0.74760  0.42100  0.12440  1.0000
  C   C53       1.0  0.79600  0.48690  0.60320  1.0000
  C   C54       1.0  0.79600  0.51310  0.10320  1.0000
  C   C55       1.0  0.75500  0.44160  0.52800  1.0000
  C   C56       1.0  0.75500  0.55840  0.02800  1.0000
  H   H17       1.0  0.78700  0.40010  0.54310  1.0000
  H   H18       1.0  0.78700  0.59990  0.04310  1.0000
  C   C57       1.0  0.89550  0.46970  0.70240  1.0000
  C   C58       1.0  0.89550  0.53030  0.20240  1.0000
  C   C59       1.0  0.00770  0.51400  0.75900  1.0000
  C   C60       1.0  0.00770  0.48600  0.25900  1.0000
  H   H19       1.0  0.01940  0.55320  0.73250  1.0000
  H   H20       1.0  0.01940  0.44680  0.23250  1.0000
  C   C61       1.0  0.10000  0.50030  0.85230  1.0000
  C   C62       1.0  0.10000  0.49970  0.35230  1.0000
  C   C63       1.0  0.22300  0.55040  0.91000  1.0000
  C   C64       1.0  0.22300  0.44960  0.41000  1.0000
  C   C65       1.0  0.09570  0.44120  0.89170  1.0000
  C   C66       1.0  0.09570  0.55880  0.39170  1.0000
  H   H21       1.0  0.16510  0.43170  0.95330  1.0000
  H   H22       1.0  0.16510  0.56830  0.45330  1.0000
  C   C67       1.0  0.98690  0.39610  0.83840  1.0000
  C   C68       1.0  0.98690  0.60390  0.33840  1.0000
  C   C69       1.0  0.97770  0.33090  0.87400  1.0000
  C   C70       1.0  0.97770  0.66910  0.37400  1.0000
  C   C71       1.0  0.88800  0.41060  0.74370  1.0000
  C   C72       1.0  0.88800  0.58940  0.24370  1.0000
  H   H23       1.0  0.81700  0.38020  0.70780  1.0000
  H   H24       1.0  0.81700  0.61980  0.20780  1.0000
  N   N1        1.0  0.28550  0.20580  0.30120  1.0000
  N   N2        1.0  0.28550  0.79420  0.80120  1.0000
  N   N3        1.0  0.28110  0.27090  0.29210  1.0000
  N   N4        1.0  0.28110  0.72910  0.79210  1.0000
  N   N5        1.0  0.19490  0.23060  0.14670  1.0000
  N   N6        1.0  0.19490  0.76940  0.64670  1.0000
  N   N7        1.0  0.22430  0.12270  0.18910  1.0000
  N   N8        1.0  0.22430  0.87730  0.68910  1.0000
  H   H25       1.0  0.25060  0.09440  0.23390  1.0000
  H   H26       1.0  0.25060  0.90560  0.73390  1.0000
  H   H27       1.0  0.19030  0.11180  0.12870  1.0000
  H   H28       1.0  0.19030  0.88820  0.62870  1.0000
  N   N9        1.0  0.21700  0.34210  0.16470  1.0000
  N   N10       1.0  0.21700  0.65790  0.66470  1.0000
  H   H29       1.0  0.24410  0.37370  0.20350  1.0000
  H   H30       1.0  0.24410  0.62630  0.70350  1.0000
  H   H31       1.0  0.18110  0.34810  0.10260  1.0000
  H   H32       1.0  0.18110  0.65190  0.60260  1.0000
  N   N11       1.0  0.42740  0.22450  0.53470  1.0000
  N   N12       1.0  0.42740  0.77550  0.03470  1.0000
  N   N13       1.0  0.40430  0.29140  0.53040  1.0000
  N   N14       1.0  0.40430  0.70860  0.03040  1.0000
  N   N15       1.0  0.52440  0.26490  0.68820  1.0000
  N   N16       1.0  0.52440  0.73510  0.18820  1.0000
  N   N17       1.0  0.54800  0.15480  0.67190  1.0000
  N   N18       1.0  0.54800  0.84520  0.17190  1.0000
  H   H33       1.0  0.53610  0.12130  0.63700  1.0000
  H   H34       1.0  0.53610  0.87870  0.13700  1.0000
  H   H35       1.0  0.59190  0.15270  0.73400  1.0000
  H   H36       1.0  0.59190  0.84730  0.23400  1.0000
  N   N19       1.0  0.46600  0.37330  0.64880  1.0000
  N   N20       1.0  0.46600  0.62670  0.14880  1.0000
  H   H37       1.0  0.42920  0.40220  0.60600  1.0000
  H   H38       1.0  0.42920  0.59780  0.10600  1.0000
  H   H39       1.0  0.50520  0.38310  0.70940  1.0000
  H   H40       1.0  0.50520  0.61690  0.20940  1.0000
  O   O1        1.0  0.44800  0.09080  0.47640  1.0000
  O   O2        1.0  0.44800  0.90920  0.97640  1.0000
  O   O3        1.0  0.38790  0.03270  0.34180  1.0000
  O   O4        1.0  0.38790  0.96730  0.84180  1.0000
  O   O5        1.0  0.60340  0.80860  0.38120  1.0000
  O   O6        1.0  0.60340  0.19140  0.88120  1.0000
  O   O7        1.0  0.83120  0.78810  0.50230  1.0000
  O   O8        1.0  0.83120  0.21190  0.00230  1.0000
  O   O9        1.0  0.08960  0.83950  0.95710  1.0000
  O   O10       1.0  0.08960  0.16050  0.45710  1.0000
  O   O11       1.0  0.00460  0.90150  0.06060  1.0000
  O   O12       1.0  0.00460  0.09850  0.56060  1.0000
  O   O13       1.0  0.11250  0.13240  0.98070  1.0000
  O   O14       1.0  0.11250  0.86760  0.48070  1.0000
  O   O15       1.0  0.98800  0.16310  0.83120  1.0000
  O   O16       1.0  0.98800  0.83690  0.33120  1.0000
  O   O17       1.0  0.60720  0.34980  0.38670  1.0000
  O   O18       1.0  0.60720  0.65020  0.88670  1.0000
  O   O19       1.0  0.64350  0.41720  0.27360  1.0000
  O   O20       1.0  0.64350  0.58280  0.77360  1.0000
  O   O21       1.0  0.57990  0.64610  0.36850  1.0000
  O   O22       1.0  0.57990  0.35390  0.86850  1.0000
  O   O23       1.0  0.58160  0.66660  0.52220  1.0000
  O   O24       1.0  0.58160  0.33340  0.02220  1.0000
  O   O25       1.0  0.23660  0.59820  0.85890  1.0000
  O   O26       1.0  0.23660  0.40180  0.35890  1.0000
  O   O27       1.0  0.29590  0.54190  0.99660  1.0000
  O   O28       1.0  0.29590  0.45810  0.49660  1.0000
  O   O29       1.0  0.06280  0.31540  0.95640  1.0000
  O   O30       1.0  0.06280  0.68460  0.45640  1.0000
  O   O31       1.0  0.87150  0.29400  0.81640  1.0000
  O   O32       1.0  0.87150  0.70600  0.31640  1.0000
  O   O33       1.0  0.33000  0.23760  0.95870  1.0000
  O   O34       1.0  0.33000  0.76240  0.45870  1.0000
  H   H41       1.0  0.38420  0.21210  0.93240  1.0000
  H   H42       1.0  0.38420  0.78790  0.43240  1.0000
  H   H43       1.0  0.37670  0.27350  0.96100  1.0000
  H   H44       1.0  0.37670  0.72650  0.46100  1.0000
