data_image0
_chemical_formula_structural       Tb4O32C40O8C8O8C48H8C8H8C16H8C8H8C8H16C8N8H24N8H8N8H16Cu8Br4
_chemical_formula_sum              "Tb4 O48 C144 H96 N24 Cu8 Br4"
_cell_length_a       18.92
_cell_length_b       15.464
_cell_length_c       19.388
_cell_angle_alpha    90
_cell_angle_beta     101.707
_cell_angle_gamma    90

_space_group_name_H-M_alt    "P 1"
_space_group_IT_number       1

loop_
  _space_group_symop_operation_xyz
  'x, y, z'

loop_
  _atom_site_type_symbol
  _atom_site_label
  _atom_site_symmetry_multiplicity
  _atom_site_fract_x
  _atom_site_fract_y
  _atom_site_fract_z
  _atom_site_occupancy
  Tb  Tb1       1.0  0.75000  0.59185  0.00000  1.0000
  Tb  Tb2       1.0  0.25000  0.09185  0.50000  1.0000
  Tb  Tb3       1.0  0.25000  0.40815  0.00000  1.0000
  Tb  Tb4       1.0  0.75000  0.90815  0.50000  1.0000
  O   O1        1.0  0.87580  0.63060  0.07120  1.0000
  O   O2        1.0  0.62420  0.63060  0.92880  1.0000
  O   O3        1.0  0.37580  0.13060  0.57120  1.0000
  O   O4        1.0  0.12420  0.13060  0.42880  1.0000
  O   O5        1.0  0.12420  0.36940  0.92880  1.0000
  O   O6        1.0  0.37580  0.36940  0.07120  1.0000
  O   O7        1.0  0.62420  0.86940  0.42880  1.0000
  O   O8        1.0  0.87580  0.86940  0.57120  1.0000
  O   O9        1.0  0.80650  0.54220  0.11670  1.0000
  O   O10       1.0  0.69350  0.54220  0.88330  1.0000
  O   O11       1.0  0.30650  0.04220  0.61670  1.0000
  O   O12       1.0  0.19350  0.04220  0.38330  1.0000
  O   O13       1.0  0.19350  0.45780  0.88330  1.0000
  O   O14       1.0  0.30650  0.45780  0.11670  1.0000
  O   O15       1.0  0.69350  0.95780  0.38330  1.0000
  O   O16       1.0  0.80650  0.95780  0.61670  1.0000
  O   O17       1.0  0.77920  0.69990  0.93100  1.0000
  O   O18       1.0  0.72080  0.69990  0.06900  1.0000
  O   O19       1.0  0.27920  0.19990  0.43100  1.0000
  O   O20       1.0  0.22080  0.19990  0.56900  1.0000
  O   O21       1.0  0.22080  0.30010  0.06900  1.0000
  O   O22       1.0  0.27920  0.30010  0.93100  1.0000
  O   O23       1.0  0.72080  0.80010  0.56900  1.0000
  O   O24       1.0  0.77920  0.80010  0.43100  1.0000
  O   O25       1.0  0.67120  0.49510  0.03190  1.0000
  O   O26       1.0  0.82880  0.49510  0.96810  1.0000
  O   O27       1.0  0.17120  0.99510  0.53190  1.0000
  O   O28       1.0  0.32880  0.99510  0.46810  1.0000
  O   O29       1.0  0.32880  0.50490  0.96810  1.0000
  O   O30       1.0  0.17120  0.50490  0.03190  1.0000
  O   O31       1.0  0.82880  0.00490  0.46810  1.0000
  O   O32       1.0  0.67120  0.00490  0.53190  1.0000
  C   C1        1.0  0.86250  0.58740  0.12170  1.0000
  C   C2        1.0  0.63750  0.58740  0.87830  1.0000
  C   C3        1.0  0.36250  0.08740  0.62170  1.0000
  C   C4        1.0  0.13750  0.08740  0.37830  1.0000
  C   C5        1.0  0.13750  0.41260  0.87830  1.0000
  C   C6        1.0  0.36250  0.41260  0.12170  1.0000
  C   C7        1.0  0.63750  0.91260  0.37830  1.0000
  C   C8        1.0  0.86250  0.91260  0.62170  1.0000
  C   C9        1.0  0.79640  0.77190  0.91050  1.0000
  C   C10       1.0  0.70360  0.77190  0.08950  1.0000
  C   C11       1.0  0.29640  0.27190  0.41050  1.0000
  C   C12       1.0  0.20360  0.27190  0.58950  1.0000
  C   C13       1.0  0.20360  0.22810  0.08950  1.0000
  C   C14       1.0  0.29640  0.22810  0.91050  1.0000
  C   C15       1.0  0.70360  0.72810  0.58950  1.0000
  C   C16       1.0  0.79640  0.72810  0.41050  1.0000
  C   C17       1.0  0.61440  0.45660  0.03860  1.0000
  C   C18       1.0  0.88560  0.45660  0.96140  1.0000
  C   C19       1.0  0.11440  0.95660  0.53860  1.0000
  C   C20       1.0  0.38560  0.95660  0.46140  1.0000
  C   C21       1.0  0.38560  0.54340  0.96140  1.0000
  C   C22       1.0  0.11440  0.54340  0.03860  1.0000
  C   C23       1.0  0.88560  0.04340  0.46140  1.0000
  C   C24       1.0  0.61440  0.04340  0.53860  1.0000
  C   C25       1.0  0.91410  0.58750  0.19130  1.0000
  C   C26       1.0  0.58590  0.58750  0.80870  1.0000
  C   C27       1.0  0.41410  0.08750  0.69130  1.0000
  C   C28       1.0  0.08590  0.08750  0.30870  1.0000
  C   C29       1.0  0.08590  0.41250  0.80870  1.0000
  C   C30       1.0  0.41410  0.41250  0.19130  1.0000
  C   C31       1.0  0.58590  0.91250  0.30870  1.0000
  C   C32       1.0  0.91410  0.91250  0.69130  1.0000
  C   C33       1.0  0.74420  0.84650  0.91120  1.0000
  C   C34       1.0  0.75580  0.84650  0.08880  1.0000
  C   C35       1.0  0.24420  0.34650  0.41120  1.0000
  C   C36       1.0  0.25580  0.34650  0.58880  1.0000
  C   C37       1.0  0.25580  0.15350  0.08880  1.0000
  C   C38       1.0  0.24420  0.15350  0.91120  1.0000
  C   C39       1.0  0.75580  0.65350  0.58880  1.0000
  C   C40       1.0  0.74420  0.65350  0.41120  1.0000
  O   O33       1.0  0.85250  0.78670  0.88880  1.0000
  O   O34       1.0  0.64750  0.78670  0.11120  1.0000
  O   O35       1.0  0.35250  0.28670  0.38880  1.0000
  O   O36       1.0  0.14750  0.28670  0.61120  1.0000
  O   O37       1.0  0.14750  0.21330  0.11120  1.0000
  O   O38       1.0  0.35250  0.21330  0.88880  1.0000
  O   O39       1.0  0.64750  0.71330  0.61120  1.0000
  O   O40       1.0  0.85250  0.71330  0.38880  1.0000
  C   C41       1.0  0.60080  0.36900  0.00450  1.0000
  C   C42       1.0  0.89920  0.36900  0.99550  1.0000
  C   C43       1.0  0.10080  0.86900  0.50450  1.0000
  C   C44       1.0  0.39920  0.86900  0.49550  1.0000
  C   C45       1.0  0.39920  0.63100  0.99550  1.0000
  C   C46       1.0  0.10080  0.63100  0.00450  1.0000
  C   C47       1.0  0.89920  0.13100  0.49550  1.0000
  C   C48       1.0  0.60080  0.13100  0.50450  1.0000
  O   O41       1.0  0.57030  0.48410  0.07320  1.0000
  O   O42       1.0  0.92970  0.48410  0.92680  1.0000
  O   O43       1.0  0.07030  0.98410  0.57320  1.0000
  O   O44       1.0  0.42970  0.98410  0.42680  1.0000
  O   O45       1.0  0.42970  0.51590  0.92680  1.0000
  O   O46       1.0  0.07030  0.51590  0.07320  1.0000
  O   O47       1.0  0.92970  0.01590  0.42680  1.0000
  O   O48       1.0  0.57030  0.01590  0.57320  1.0000
  C   C49       1.0  0.98790  0.60070  0.19730  1.0000
  C   C50       1.0  0.51210  0.60070  0.80270  1.0000
  C   C51       1.0  0.48790  0.10070  0.69730  1.0000
  C   C52       1.0  0.01210  0.10070  0.30270  1.0000
  C   C53       1.0  0.01210  0.39930  0.80270  1.0000
  C   C54       1.0  0.48790  0.39930  0.19730  1.0000
  C   C55       1.0  0.51210  0.89930  0.30270  1.0000
  C   C56       1.0  0.98790  0.89930  0.69730  1.0000
  C   C57       1.0  0.88970  0.57450  0.25190  1.0000
  C   C58       1.0  0.61030  0.57450  0.74810  1.0000
  C   C59       1.0  0.38970  0.07450  0.75190  1.0000
  C   C60       1.0  0.11030  0.07450  0.24810  1.0000
  C   C61       1.0  0.11030  0.42550  0.74810  1.0000
  C   C62       1.0  0.38970  0.42550  0.25190  1.0000
  C   C63       1.0  0.61030  0.92550  0.24810  1.0000
  C   C64       1.0  0.88970  0.92550  0.75190  1.0000
  C   C65       1.0  0.76730  0.93120  0.91050  1.0000
  C   C66       1.0  0.73270  0.93120  0.08950  1.0000
  C   C67       1.0  0.26730  0.43120  0.41050  1.0000
  C   C68       1.0  0.23270  0.43120  0.58950  1.0000
  C   C69       1.0  0.23270  0.06880  0.08950  1.0000
  C   C70       1.0  0.26730  0.06880  0.91050  1.0000
  C   C71       1.0  0.73270  0.56880  0.58950  1.0000
  C   C72       1.0  0.76730  0.56880  0.41050  1.0000
  C   C73       1.0  0.67190  0.83180  0.91270  1.0000
  C   C74       1.0  0.82810  0.83180  0.08730  1.0000
  C   C75       1.0  0.17190  0.33180  0.41270  1.0000
  C   C76       1.0  0.32810  0.33180  0.58730  1.0000
  C   C77       1.0  0.32810  0.16820  0.08730  1.0000
  C   C78       1.0  0.17190  0.16820  0.91270  1.0000
  C   C79       1.0  0.82810  0.66820  0.58730  1.0000
  C   C80       1.0  0.67190  0.66820  0.41270  1.0000
  C   C81       1.0  0.65080  0.33280  0.97000  1.0000
  C   C82       1.0  0.84920  0.33280  0.03000  1.0000
  C   C83       1.0  0.15080  0.83280  0.47000  1.0000
  C   C84       1.0  0.34920  0.83280  0.53000  1.0000
  C   C85       1.0  0.34920  0.66720  0.03000  1.0000
  C   C86       1.0  0.15080  0.66720  0.97000  1.0000
  C   C87       1.0  0.84920  0.16720  0.53000  1.0000
  C   C88       1.0  0.65080  0.16720  0.47000  1.0000
  C   C89       1.0  0.54160  0.32000  0.01060  1.0000
  C   C90       1.0  0.95840  0.32000  0.98940  1.0000
  C   C91       1.0  0.04160  0.82000  0.51060  1.0000
  C   C92       1.0  0.45840  0.82000  0.48940  1.0000
  C   C93       1.0  0.45840  0.68000  0.98940  1.0000
  C   C94       1.0  0.04160  0.68000  0.01060  1.0000
  C   C95       1.0  0.95840  0.18000  0.48940  1.0000
  C   C96       1.0  0.54160  0.18000  0.51060  1.0000
  H   H1        1.0  0.00688  0.61164  0.15751  1.0000
  H   H2        1.0  0.49312  0.61164  0.84249  1.0000
  H   H3        1.0  0.50688  0.11164  0.65751  1.0000
  H   H4        1.0  0.99312  0.11164  0.34249  1.0000
  H   H5        1.0  0.99312  0.38836  0.84249  1.0000
  H   H6        1.0  0.50688  0.38836  0.15751  1.0000
  H   H7        1.0  0.49312  0.88836  0.34249  1.0000
  H   H8        1.0  0.00688  0.88836  0.65751  1.0000
  C   C97       1.0  0.03230  0.59740  0.26280  1.0000
  C   C98       1.0  0.46770  0.59740  0.73720  1.0000
  C   C99       1.0  0.53230  0.09740  0.76280  1.0000
  C   C100      1.0  0.96770  0.09740  0.23720  1.0000
  C   C101      1.0  0.96770  0.40260  0.73720  1.0000
  C   C102      1.0  0.53230  0.40260  0.26280  1.0000
  C   C103      1.0  0.46770  0.90260  0.23720  1.0000
  C   C104      1.0  0.03230  0.90260  0.76280  1.0000
  H   H9        1.0  0.84090  0.56514  0.25047  1.0000
  H   H10       1.0  0.65910  0.56514  0.74953  1.0000
  H   H11       1.0  0.34090  0.06514  0.75047  1.0000
  H   H12       1.0  0.15910  0.06514  0.24953  1.0000
  H   H13       1.0  0.15910  0.43486  0.74953  1.0000
  H   H14       1.0  0.34090  0.43486  0.25047  1.0000
  H   H15       1.0  0.65910  0.93486  0.24953  1.0000
  H   H16       1.0  0.84090  0.93486  0.75047  1.0000
  C   C105      1.0  0.93880  0.57540  0.31620  1.0000
  C   C106      1.0  0.56120  0.57540  0.68380  1.0000
  C   C107      1.0  0.43880  0.07540  0.81620  1.0000
  C   C108      1.0  0.06120  0.07540  0.18380  1.0000
  C   C109      1.0  0.06120  0.42460  0.68380  1.0000
  C   C110      1.0  0.43880  0.42460  0.31620  1.0000
  C   C111      1.0  0.56120  0.92460  0.18380  1.0000
  C   C112      1.0  0.93880  0.92460  0.81620  1.0000
  C   C113      1.0  0.71810  0.99620  0.91290  1.0000
  C   C114      1.0  0.78190  0.99620  0.08710  1.0000
  C   C115      1.0  0.21810  0.49620  0.41290  1.0000
  C   C116      1.0  0.28190  0.49620  0.58710  1.0000
  C   C117      1.0  0.28190  0.00380  0.08710  1.0000
  C   C118      1.0  0.21810  0.00380  0.91290  1.0000
  C   C119      1.0  0.78190  0.50380  0.58710  1.0000
  C   C120      1.0  0.71810  0.50380  0.41290  1.0000
  H   H17       1.0  0.81488  0.94403  0.90850  1.0000
  H   H18       1.0  0.68512  0.94403  0.09150  1.0000
  H   H19       1.0  0.31488  0.44403  0.40850  1.0000
  H   H20       1.0  0.18512  0.44403  0.59150  1.0000
  H   H21       1.0  0.18512  0.05597  0.09150  1.0000
  H   H22       1.0  0.31488  0.05597  0.90850  1.0000
  H   H23       1.0  0.68512  0.55597  0.59150  1.0000
  H   H24       1.0  0.81488  0.55597  0.40850  1.0000
  C   C121      1.0  0.62730  0.90020  0.91420  1.0000
  C   C122      1.0  0.87270  0.90020  0.08580  1.0000
  C   C123      1.0  0.12730  0.40020  0.41420  1.0000
  C   C124      1.0  0.37270  0.40020  0.58580  1.0000
  C   C125      1.0  0.37270  0.09980  0.08580  1.0000
  C   C126      1.0  0.12730  0.09980  0.91420  1.0000
  C   C127      1.0  0.87270  0.59980  0.58580  1.0000
  C   C128      1.0  0.62730  0.59980  0.41420  1.0000
  H   H25       1.0  0.65438  0.77562  0.91259  1.0000
  H   H26       1.0  0.84562  0.77562  0.08741  1.0000
  H   H27       1.0  0.15438  0.27562  0.41259  1.0000
  H   H28       1.0  0.34562  0.27562  0.58741  1.0000
  H   H29       1.0  0.34562  0.22438  0.08741  1.0000
  H   H30       1.0  0.15438  0.22438  0.91259  1.0000
  H   H31       1.0  0.84562  0.72438  0.58741  1.0000
  H   H32       1.0  0.65438  0.72438  0.41259  1.0000
  C   C129      1.0  0.64220  0.24860  0.94630  1.0000
  C   C130      1.0  0.85780  0.24860  0.05370  1.0000
  C   C131      1.0  0.14220  0.74860  0.44630  1.0000
  C   C132      1.0  0.35780  0.74860  0.55370  1.0000
  C   C133      1.0  0.35780  0.75140  0.05370  1.0000
  C   C134      1.0  0.14220  0.75140  0.94630  1.0000
  C   C135      1.0  0.85780  0.25140  0.55370  1.0000
  C   C136      1.0  0.64220  0.25140  0.44630  1.0000
  H   H33       1.0  0.69005  0.36514  0.96277  1.0000
  H   H34       1.0  0.80995  0.36514  0.03723  1.0000
  H   H35       1.0  0.19005  0.86514  0.46277  1.0000
  H   H36       1.0  0.30995  0.86514  0.53723  1.0000
  H   H37       1.0  0.30995  0.63486  0.03723  1.0000
  H   H38       1.0  0.19005  0.63486  0.96277  1.0000
  H   H39       1.0  0.80995  0.13486  0.53723  1.0000
  H   H40       1.0  0.69005  0.13486  0.46277  1.0000
  H   H41       1.0  0.50587  0.34288  0.03176  1.0000
  H   H42       1.0  0.99413  0.34288  0.96824  1.0000
  H   H43       1.0  0.00587  0.84288  0.53176  1.0000
  H   H44       1.0  0.49413  0.84288  0.46824  1.0000
  H   H45       1.0  0.49413  0.65712  0.96824  1.0000
  H   H46       1.0  0.00587  0.65712  0.03176  1.0000
  H   H47       1.0  0.99413  0.15712  0.46824  1.0000
  H   H48       1.0  0.50587  0.15712  0.53176  1.0000
  C   C137      1.0  0.53590  0.23590  0.98470  1.0000
  C   C138      1.0  0.96410  0.23590  0.01530  1.0000
  C   C139      1.0  0.03590  0.73590  0.48470  1.0000
  C   C140      1.0  0.46410  0.73590  0.51530  1.0000
  C   C141      1.0  0.46410  0.76410  0.01530  1.0000
  C   C142      1.0  0.03590  0.76410  0.98470  1.0000
  C   C143      1.0  0.96410  0.26410  0.51530  1.0000
  C   C144      1.0  0.53590  0.26410  0.48470  1.0000
  N   N1        1.0  0.00880  0.58350  0.32160  1.0000
  N   N2        1.0  0.49120  0.58350  0.67840  1.0000
  N   N3        1.0  0.50880  0.08350  0.82160  1.0000
  N   N4        1.0  0.99120  0.08350  0.17840  1.0000
  N   N5        1.0  0.99120  0.41650  0.67840  1.0000
  N   N6        1.0  0.50880  0.41650  0.32160  1.0000
  N   N7        1.0  0.49120  0.91650  0.17840  1.0000
  N   N8        1.0  0.00880  0.91650  0.82160  1.0000
  H   H49       1.0  0.08156  0.60533  0.26593  1.0000
  H   H50       1.0  0.41844  0.60533  0.73407  1.0000
  H   H51       1.0  0.58156  0.10533  0.76593  1.0000
  H   H52       1.0  0.91844  0.10533  0.23407  1.0000
  H   H53       1.0  0.91844  0.39467  0.73407  1.0000
  H   H54       1.0  0.58156  0.39467  0.26593  1.0000
  H   H55       1.0  0.41844  0.89467  0.23407  1.0000
  H   H56       1.0  0.08156  0.89467  0.76593  1.0000
  H   H57       1.0  0.92101  0.57011  0.35736  1.0000
  H   H58       1.0  0.57899  0.57011  0.64264  1.0000
  H   H59       1.0  0.42101  0.07011  0.85736  1.0000
  H   H60       1.0  0.07899  0.07011  0.14264  1.0000
  H   H61       1.0  0.07899  0.42989  0.64264  1.0000
  H   H62       1.0  0.42101  0.42989  0.35736  1.0000
  H   H63       1.0  0.57899  0.92989  0.14264  1.0000
  H   H64       1.0  0.92101  0.92989  0.85736  1.0000
  H   H65       1.0  0.73444  0.05299  0.91324  1.0000
  H   H66       1.0  0.76556  0.05299  0.08676  1.0000
  H   H67       1.0  0.23444  0.55299  0.41324  1.0000
  H   H68       1.0  0.26556  0.55299  0.58676  1.0000
  H   H69       1.0  0.26556  0.94701  0.08676  1.0000
  H   H70       1.0  0.23444  0.94701  0.91324  1.0000
  H   H71       1.0  0.76556  0.44701  0.58676  1.0000
  H   H72       1.0  0.73444  0.44701  0.41324  1.0000
  N   N9        1.0  0.64860  0.98370  0.91470  1.0000
  N   N10       1.0  0.85140  0.98370  0.08530  1.0000
  N   N11       1.0  0.14860  0.48370  0.41470  1.0000
  N   N12       1.0  0.35140  0.48370  0.58530  1.0000
  N   N13       1.0  0.35140  0.01630  0.08530  1.0000
  N   N14       1.0  0.14860  0.01630  0.91470  1.0000
  N   N15       1.0  0.85140  0.51630  0.58530  1.0000
  N   N16       1.0  0.64860  0.51630  0.41470  1.0000
  H   H73       1.0  0.57919  0.88895  0.91490  1.0000
  H   H74       1.0  0.92081  0.88895  0.08510  1.0000
  H   H75       1.0  0.07919  0.38895  0.41490  1.0000
  H   H76       1.0  0.42081  0.38895  0.58510  1.0000
  H   H77       1.0  0.42081  0.11105  0.08510  1.0000
  H   H78       1.0  0.07919  0.11105  0.91490  1.0000
  H   H79       1.0  0.92081  0.61105  0.58510  1.0000
  H   H80       1.0  0.57919  0.61105  0.41490  1.0000
  N   N17       1.0  0.58670  0.19900  0.95490  1.0000
  N   N18       1.0  0.91330  0.19900  0.04510  1.0000
  N   N19       1.0  0.08670  0.69900  0.45490  1.0000
  N   N20       1.0  0.41330  0.69900  0.54510  1.0000
  N   N21       1.0  0.41330  0.80100  0.04510  1.0000
  N   N22       1.0  0.08670  0.80100  0.95490  1.0000
  N   N23       1.0  0.91330  0.30100  0.54510  1.0000
  N   N24       1.0  0.58670  0.30100  0.45490  1.0000
  H   H81       1.0  0.67647  0.22534  0.92333  1.0000
  H   H82       1.0  0.82353  0.22534  0.07667  1.0000
  H   H83       1.0  0.17647  0.72534  0.42333  1.0000
  H   H84       1.0  0.32353  0.72534  0.57667  1.0000
  H   H85       1.0  0.32353  0.77466  0.07667  1.0000
  H   H86       1.0  0.17647  0.77466  0.92333  1.0000
  H   H87       1.0  0.82353  0.27466  0.57667  1.0000
  H   H88       1.0  0.67647  0.27466  0.42333  1.0000
  H   H89       1.0  0.49519  0.20374  0.98820  1.0000
  H   H90       1.0  0.00481  0.20374  0.01180  1.0000
  H   H91       1.0  0.99519  0.70374  0.48820  1.0000
  H   H92       1.0  0.50481  0.70374  0.51180  1.0000
  H   H93       1.0  0.50481  0.79626  0.01180  1.0000
  H   H94       1.0  0.99519  0.79626  0.98820  1.0000
  H   H95       1.0  0.00481  0.29626  0.51180  1.0000
  H   H96       1.0  0.49519  0.29626  0.48820  1.0000
  Cu  Cu1       1.0  0.07730  0.57749  0.41931  1.0000
  Cu  Cu2       1.0  0.42270  0.57749  0.58069  1.0000
  Cu  Cu3       1.0  0.57730  0.07749  0.91931  1.0000
  Cu  Cu4       1.0  0.92270  0.07749  0.08069  1.0000
  Cu  Cu5       1.0  0.92270  0.42251  0.58069  1.0000
  Cu  Cu6       1.0  0.57730  0.42251  0.41931  1.0000
  Cu  Cu7       1.0  0.42270  0.92251  0.08069  1.0000
  Cu  Cu8       1.0  0.07730  0.92251  0.91931  1.0000
  Br  Br1       1.0  0.50000  0.00000  0.00000  1.0000
  Br  Br2       1.0  0.00000  0.00000  0.00000  1.0000
  Br  Br3       1.0  0.00000  0.50000  0.50000  1.0000
  Br  Br4       1.0  0.50000  0.50000  0.50000  1.0000
