data_image0
_chemical_formula_structural       Eu4Cu8Br4N16O8C8O16C16H8C8N8C8H8C8H8O8C8H8C24O8C8H8C8H8C8H8C8H8C8H8C8H8C8H8C8H8O8
_chemical_formula_sum              "Eu4 Cu8 Br4 N24 O48 C144 H96"
_cell_length_a       18.972
_cell_length_b       15.53
_cell_length_c       19.512
_cell_angle_alpha    90
_cell_angle_beta     101.8
_cell_angle_gamma    90

_space_group_name_H-M_alt    "P 1"
_space_group_IT_number       1

loop_
  _space_group_symop_operation_xyz
  'x, y, z'

loop_
  _atom_site_type_symbol
  _atom_site_label
  _atom_site_symmetry_multiplicity
  _atom_site_fract_x
  _atom_site_fract_y
  _atom_site_fract_z
  _atom_site_occupancy
  Eu  Eu1       1.0  0.25000  0.09199  0.50000  1.0000
  Eu  Eu2       1.0  0.75000  0.59199  0.00000  1.0000
  Eu  Eu3       1.0  0.75000  0.90801  0.50000  1.0000
  Eu  Eu4       1.0  0.25000  0.40801  0.00000  1.0000
  Cu  Cu1       1.0  0.07725  0.57760  0.41985  1.0000
  Cu  Cu2       1.0  0.42275  0.57760  0.58015  1.0000
  Cu  Cu3       1.0  0.57725  0.07760  0.91985  1.0000
  Cu  Cu4       1.0  0.92275  0.07760  0.08015  1.0000
  Cu  Cu5       1.0  0.92275  0.42240  0.58015  1.0000
  Cu  Cu6       1.0  0.57725  0.42240  0.41985  1.0000
  Cu  Cu7       1.0  0.42275  0.92240  0.08015  1.0000
  Cu  Cu8       1.0  0.07725  0.92240  0.91985  1.0000
  Br  Br1       1.0  0.00000  0.50000  0.50000  1.0000
  Br  Br2       1.0  0.50000  0.50000  0.50000  1.0000
  Br  Br3       1.0  0.50000  0.00000  0.00000  1.0000
  Br  Br4       1.0  0.00000  0.00000  0.00000  1.0000
  N   N1        1.0  0.14890  0.48370  0.41480  1.0000
  N   N2        1.0  0.35110  0.48370  0.58520  1.0000
  N   N3        1.0  0.64890  0.98370  0.91480  1.0000
  N   N4        1.0  0.85110  0.98370  0.08520  1.0000
  N   N5        1.0  0.85110  0.51630  0.58520  1.0000
  N   N6        1.0  0.64890  0.51630  0.41480  1.0000
  N   N7        1.0  0.35110  0.01630  0.08520  1.0000
  N   N8        1.0  0.14890  0.01630  0.91480  1.0000
  N   N9        1.0  0.00940  0.58410  0.32220  1.0000
  N   N10       1.0  0.49060  0.58410  0.67780  1.0000
  N   N11       1.0  0.50940  0.08410  0.82220  1.0000
  N   N12       1.0  0.99060  0.08410  0.17780  1.0000
  N   N13       1.0  0.99060  0.41590  0.67780  1.0000
  N   N14       1.0  0.50940  0.41590  0.32220  1.0000
  N   N15       1.0  0.49060  0.91590  0.17780  1.0000
  N   N16       1.0  0.00940  0.91590  0.82220  1.0000
  O   O1        1.0  0.27930  0.20090  0.42990  1.0000
  O   O2        1.0  0.22070  0.20090  0.57010  1.0000
  O   O3        1.0  0.77930  0.70090  0.92990  1.0000
  O   O4        1.0  0.72070  0.70090  0.07010  1.0000
  O   O5        1.0  0.72070  0.79910  0.57010  1.0000
  O   O6        1.0  0.77930  0.79910  0.42990  1.0000
  O   O7        1.0  0.22070  0.29910  0.07010  1.0000
  O   O8        1.0  0.27930  0.29910  0.92990  1.0000
  C   C1        1.0  0.86340  0.58710  0.12200  1.0000
  C   C2        1.0  0.63660  0.58710  0.87800  1.0000
  C   C3        1.0  0.36340  0.08710  0.62200  1.0000
  C   C4        1.0  0.13660  0.08710  0.37800  1.0000
  C   C5        1.0  0.13660  0.41290  0.87800  1.0000
  C   C6        1.0  0.36340  0.41290  0.12200  1.0000
  C   C7        1.0  0.63660  0.91290  0.37800  1.0000
  C   C8        1.0  0.86340  0.91290  0.62200  1.0000
  O   O9        1.0  0.87640  0.63070  0.07260  1.0000
  O   O10       1.0  0.62360  0.63070  0.92740  1.0000
  O   O11       1.0  0.37640  0.13070  0.57260  1.0000
  O   O12       1.0  0.12360  0.13070  0.42740  1.0000
  O   O13       1.0  0.12360  0.36930  0.92740  1.0000
  O   O14       1.0  0.37640  0.36930  0.07260  1.0000
  O   O15       1.0  0.62360  0.86930  0.42740  1.0000
  O   O16       1.0  0.87640  0.86930  0.57260  1.0000
  O   O17       1.0  0.80720  0.54120  0.11740  1.0000
  O   O18       1.0  0.69280  0.54120  0.88260  1.0000
  O   O19       1.0  0.30720  0.04120  0.61740  1.0000
  O   O20       1.0  0.19280  0.04120  0.38260  1.0000
  O   O21       1.0  0.19280  0.45880  0.88260  1.0000
  O   O22       1.0  0.30720  0.45880  0.11740  1.0000
  O   O23       1.0  0.69280  0.95880  0.38260  1.0000
  O   O24       1.0  0.80720  0.95880  0.61740  1.0000
  C   C9        1.0  0.91500  0.58830  0.19230  1.0000
  C   C10       1.0  0.58500  0.58830  0.80770  1.0000
  C   C11       1.0  0.41500  0.08830  0.69230  1.0000
  C   C12       1.0  0.08500  0.08830  0.30770  1.0000
  C   C13       1.0  0.08500  0.41170  0.80770  1.0000
  C   C14       1.0  0.41500  0.41170  0.19230  1.0000
  C   C15       1.0  0.58500  0.91170  0.30770  1.0000
  C   C16       1.0  0.91500  0.91170  0.69230  1.0000
  C   C17       1.0  0.03570  0.73590  0.48550  1.0000
  C   C18       1.0  0.46430  0.73590  0.51450  1.0000
  C   C19       1.0  0.53570  0.23590  0.98550  1.0000
  C   C20       1.0  0.96430  0.23590  0.01450  1.0000
  C   C21       1.0  0.96430  0.26410  0.51450  1.0000
  C   C22       1.0  0.53570  0.26410  0.48550  1.0000
  C   C23       1.0  0.46430  0.76410  0.01450  1.0000
  C   C24       1.0  0.03570  0.76410  0.98550  1.0000
  H   H1        1.0  0.99555  0.70359  0.48989  1.0000
  H   H2        1.0  0.50445  0.70359  0.51011  1.0000
  H   H3        1.0  0.49555  0.20359  0.98989  1.0000
  H   H4        1.0  0.00445  0.20359  0.01011  1.0000
  H   H5        1.0  0.00445  0.29641  0.51011  1.0000
  H   H6        1.0  0.49555  0.29641  0.48989  1.0000
  H   H7        1.0  0.50445  0.79641  0.01011  1.0000
  H   H8        1.0  0.99555  0.79641  0.98989  1.0000
  C   C25       1.0  0.11320  0.95650  0.53910  1.0000
  C   C26       1.0  0.38680  0.95650  0.46090  1.0000
  C   C27       1.0  0.61320  0.45650  0.03910  1.0000
  C   C28       1.0  0.88680  0.45650  0.96090  1.0000
  C   C29       1.0  0.88680  0.04350  0.46090  1.0000
  C   C30       1.0  0.61320  0.04350  0.53910  1.0000
  C   C31       1.0  0.38680  0.54350  0.96090  1.0000
  C   C32       1.0  0.11320  0.54350  0.03910  1.0000
  N   N17       1.0  0.08560  0.69890  0.45550  1.0000
  N   N18       1.0  0.41440  0.69890  0.54450  1.0000
  N   N19       1.0  0.58560  0.19890  0.95550  1.0000
  N   N20       1.0  0.91440  0.19890  0.04450  1.0000
  N   N21       1.0  0.91440  0.30110  0.54450  1.0000
  N   N22       1.0  0.58560  0.30110  0.45550  1.0000
  N   N23       1.0  0.41440  0.80110  0.04450  1.0000
  N   N24       1.0  0.08560  0.80110  0.95550  1.0000
  C   C33       1.0  0.04050  0.81960  0.51040  1.0000
  C   C34       1.0  0.45950  0.81960  0.48960  1.0000
  C   C35       1.0  0.54050  0.31960  0.01040  1.0000
  C   C36       1.0  0.95950  0.31960  0.98960  1.0000
  C   C37       1.0  0.95950  0.18040  0.48960  1.0000
  C   C38       1.0  0.54050  0.18040  0.51040  1.0000
  C   C39       1.0  0.45950  0.68040  0.98960  1.0000
  C   C40       1.0  0.04050  0.68040  0.01040  1.0000
  H   H9        1.0  0.00417  0.84263  0.53038  1.0000
  H   H10       1.0  0.49583  0.84263  0.46962  1.0000
  H   H11       1.0  0.50417  0.34263  0.03038  1.0000
  H   H12       1.0  0.99583  0.34263  0.96962  1.0000
  H   H13       1.0  0.99583  0.15737  0.46962  1.0000
  H   H14       1.0  0.50417  0.15737  0.53038  1.0000
  H   H15       1.0  0.49583  0.65737  0.96962  1.0000
  H   H16       1.0  0.00417  0.65737  0.03038  1.0000
  C   C41       1.0  0.03310  0.59730  0.26320  1.0000
  C   C42       1.0  0.46690  0.59730  0.73680  1.0000
  C   C43       1.0  0.53310  0.09730  0.76320  1.0000
  C   C44       1.0  0.96690  0.09730  0.23680  1.0000
  C   C45       1.0  0.96690  0.40270  0.73680  1.0000
  C   C46       1.0  0.53310  0.40270  0.26320  1.0000
  C   C47       1.0  0.46690  0.90270  0.23680  1.0000
  C   C48       1.0  0.03310  0.90270  0.76320  1.0000
  H   H17       1.0  0.08226  0.60474  0.26619  1.0000
  H   H18       1.0  0.41774  0.60474  0.73381  1.0000
  H   H19       1.0  0.58226  0.10474  0.76619  1.0000
  H   H20       1.0  0.91774  0.10474  0.23381  1.0000
  H   H21       1.0  0.91774  0.39526  0.73381  1.0000
  H   H22       1.0  0.58226  0.39526  0.26619  1.0000
  H   H23       1.0  0.41774  0.89526  0.23381  1.0000
  H   H24       1.0  0.08226  0.89526  0.76619  1.0000
  O   O25       1.0  0.16980  0.99520  0.53250  1.0000
  O   O26       1.0  0.33020  0.99520  0.46750  1.0000
  O   O27       1.0  0.66980  0.49520  0.03250  1.0000
  O   O28       1.0  0.83020  0.49520  0.96750  1.0000
  O   O29       1.0  0.83020  0.00480  0.46750  1.0000
  O   O30       1.0  0.66980  0.00480  0.53250  1.0000
  O   O31       1.0  0.33020  0.50480  0.96750  1.0000
  O   O32       1.0  0.16980  0.50480  0.03250  1.0000
  C   C49       1.0  0.98850  0.60030  0.19820  1.0000
  C   C50       1.0  0.51150  0.60030  0.80180  1.0000
  C   C51       1.0  0.48850  0.10030  0.69820  1.0000
  C   C52       1.0  0.01150  0.10030  0.30180  1.0000
  C   C53       1.0  0.01150  0.39970  0.80180  1.0000
  C   C54       1.0  0.48850  0.39970  0.19820  1.0000
  C   C55       1.0  0.51150  0.89970  0.30180  1.0000
  C   C56       1.0  0.98850  0.89970  0.69820  1.0000
  H   H25       1.0  0.00738  0.61039  0.15851  1.0000
  H   H26       1.0  0.49262  0.61039  0.84149  1.0000
  H   H27       1.0  0.50738  0.11039  0.65851  1.0000
  H   H28       1.0  0.99262  0.11039  0.34149  1.0000
  H   H29       1.0  0.99262  0.38961  0.84149  1.0000
  H   H30       1.0  0.50738  0.38961  0.15851  1.0000
  H   H31       1.0  0.49262  0.88961  0.34149  1.0000
  H   H32       1.0  0.00738  0.88961  0.65851  1.0000
  C   C57       1.0  0.29590  0.27310  0.40970  1.0000
  C   C58       1.0  0.20410  0.27310  0.59030  1.0000
  C   C59       1.0  0.79590  0.77310  0.90970  1.0000
  C   C60       1.0  0.70410  0.77310  0.09030  1.0000
  C   C61       1.0  0.70410  0.72690  0.59030  1.0000
  C   C62       1.0  0.79590  0.72690  0.40970  1.0000
  C   C63       1.0  0.20410  0.22690  0.09030  1.0000
  C   C64       1.0  0.29590  0.22690  0.90970  1.0000
  C   C65       1.0  0.24420  0.34730  0.41030  1.0000
  C   C66       1.0  0.25580  0.34730  0.58970  1.0000
  C   C67       1.0  0.74420  0.84730  0.91030  1.0000
  C   C68       1.0  0.75580  0.84730  0.08970  1.0000
  C   C69       1.0  0.75580  0.65270  0.58970  1.0000
  C   C70       1.0  0.74420  0.65270  0.41030  1.0000
  C   C71       1.0  0.25580  0.15270  0.08970  1.0000
  C   C72       1.0  0.24420  0.15270  0.91030  1.0000
  C   C73       1.0  0.10020  0.86880  0.50530  1.0000
  C   C74       1.0  0.39980  0.86880  0.49470  1.0000
  C   C75       1.0  0.60020  0.36880  0.00530  1.0000
  C   C76       1.0  0.89980  0.36880  0.99470  1.0000
  C   C77       1.0  0.89980  0.13120  0.49470  1.0000
  C   C78       1.0  0.60020  0.13120  0.50530  1.0000
  C   C79       1.0  0.39980  0.63120  0.99470  1.0000
  C   C80       1.0  0.10020  0.63120  0.00530  1.0000
  O   O33       1.0  0.06960  0.98350  0.57390  1.0000
  O   O34       1.0  0.43040  0.98350  0.42610  1.0000
  O   O35       1.0  0.56960  0.48350  0.07390  1.0000
  O   O36       1.0  0.93040  0.48350  0.92610  1.0000
  O   O37       1.0  0.93040  0.01650  0.42610  1.0000
  O   O38       1.0  0.56960  0.01650  0.57390  1.0000
  O   O39       1.0  0.43040  0.51650  0.92610  1.0000
  O   O40       1.0  0.06960  0.51650  0.07390  1.0000
  C   C81       1.0  0.12830  0.40090  0.41390  1.0000
  C   C82       1.0  0.37170  0.40090  0.58610  1.0000
  C   C83       1.0  0.62830  0.90090  0.91390  1.0000
  C   C84       1.0  0.87170  0.90090  0.08610  1.0000
  C   C85       1.0  0.87170  0.59910  0.58610  1.0000
  C   C86       1.0  0.62830  0.59910  0.41390  1.0000
  C   C87       1.0  0.37170  0.09910  0.08610  1.0000
  C   C88       1.0  0.12830  0.09910  0.91390  1.0000
  H   H33       1.0  0.08010  0.38973  0.41372  1.0000
  H   H34       1.0  0.41990  0.38973  0.58628  1.0000
  H   H35       1.0  0.58010  0.88973  0.91372  1.0000
  H   H36       1.0  0.91990  0.88973  0.08628  1.0000
  H   H37       1.0  0.91990  0.61027  0.58628  1.0000
  H   H38       1.0  0.58010  0.61027  0.41372  1.0000
  H   H39       1.0  0.41990  0.11027  0.08628  1.0000
  H   H40       1.0  0.08010  0.11027  0.91372  1.0000
  C   C89       1.0  0.17270  0.33180  0.41320  1.0000
  C   C90       1.0  0.32730  0.33180  0.58680  1.0000
  C   C91       1.0  0.67270  0.83180  0.91320  1.0000
  C   C92       1.0  0.82730  0.83180  0.08680  1.0000
  C   C93       1.0  0.82730  0.66820  0.58680  1.0000
  C   C94       1.0  0.67270  0.66820  0.41320  1.0000
  C   C95       1.0  0.32730  0.16820  0.08680  1.0000
  C   C96       1.0  0.17270  0.16820  0.91320  1.0000
  H   H41       1.0  0.15548  0.27587  0.41454  1.0000
  H   H42       1.0  0.34452  0.27587  0.58546  1.0000
  H   H43       1.0  0.65548  0.77587  0.91454  1.0000
  H   H44       1.0  0.84452  0.77587  0.08546  1.0000
  H   H45       1.0  0.84452  0.72413  0.58546  1.0000
  H   H46       1.0  0.65548  0.72413  0.41454  1.0000
  H   H47       1.0  0.34452  0.22413  0.08546  1.0000
  H   H48       1.0  0.15548  0.22413  0.91454  1.0000
  C   C97       1.0  0.14980  0.83340  0.47110  1.0000
  C   C98       1.0  0.35020  0.83340  0.52890  1.0000
  C   C99       1.0  0.64980  0.33340  0.97110  1.0000
  C   C100      1.0  0.85020  0.33340  0.02890  1.0000
  C   C101      1.0  0.85020  0.16660  0.52890  1.0000
  C   C102      1.0  0.64980  0.16660  0.47110  1.0000
  C   C103      1.0  0.35020  0.66660  0.02890  1.0000
  C   C104      1.0  0.14980  0.66660  0.97110  1.0000
  H   H49       1.0  0.18886  0.86608  0.46420  1.0000
  H   H50       1.0  0.31114  0.86608  0.53580  1.0000
  H   H51       1.0  0.68886  0.36608  0.96420  1.0000
  H   H52       1.0  0.81114  0.36608  0.03580  1.0000
  H   H53       1.0  0.81114  0.13392  0.53580  1.0000
  H   H54       1.0  0.68886  0.13392  0.46420  1.0000
  H   H55       1.0  0.31114  0.63392  0.03580  1.0000
  H   H56       1.0  0.18886  0.63392  0.96420  1.0000
  C   C105      1.0  0.89040  0.57520  0.25260  1.0000
  C   C106      1.0  0.60960  0.57520  0.74740  1.0000
  C   C107      1.0  0.39040  0.07520  0.75260  1.0000
  C   C108      1.0  0.10960  0.07520  0.24740  1.0000
  C   C109      1.0  0.10960  0.42480  0.74740  1.0000
  C   C110      1.0  0.39040  0.42480  0.25260  1.0000
  C   C111      1.0  0.60960  0.92480  0.24740  1.0000
  C   C112      1.0  0.89040  0.92480  0.75260  1.0000
  H   H57       1.0  0.84156  0.56650  0.25072  1.0000
  H   H58       1.0  0.65844  0.56650  0.74928  1.0000
  H   H59       1.0  0.34156  0.06650  0.75072  1.0000
  H   H60       1.0  0.15844  0.06650  0.24928  1.0000
  H   H61       1.0  0.15844  0.43350  0.74928  1.0000
  H   H62       1.0  0.34156  0.43350  0.25072  1.0000
  H   H63       1.0  0.65844  0.93350  0.24928  1.0000
  H   H64       1.0  0.84156  0.93350  0.75072  1.0000
  C   C113      1.0  0.14200  0.74980  0.44690  1.0000
  C   C114      1.0  0.35800  0.74980  0.55310  1.0000
  C   C115      1.0  0.64200  0.24980  0.94690  1.0000
  C   C116      1.0  0.85800  0.24980  0.05310  1.0000
  C   C117      1.0  0.85800  0.25020  0.55310  1.0000
  C   C118      1.0  0.64200  0.25020  0.44690  1.0000
  C   C119      1.0  0.35800  0.75020  0.05310  1.0000
  C   C120      1.0  0.14200  0.75020  0.94690  1.0000
  H   H65       1.0  0.17633  0.72720  0.42406  1.0000
  H   H66       1.0  0.32367  0.72720  0.57594  1.0000
  H   H67       1.0  0.67633  0.22720  0.92406  1.0000
  H   H68       1.0  0.82367  0.22720  0.07594  1.0000
  H   H69       1.0  0.82367  0.27280  0.57594  1.0000
  H   H70       1.0  0.67633  0.27280  0.42406  1.0000
  H   H71       1.0  0.32367  0.77280  0.07594  1.0000
  H   H72       1.0  0.17633  0.77280  0.92406  1.0000
  C   C121      1.0  0.26720  0.43230  0.41110  1.0000
  C   C122      1.0  0.23280  0.43230  0.58890  1.0000
  C   C123      1.0  0.76720  0.93230  0.91110  1.0000
  C   C124      1.0  0.73280  0.93230  0.08890  1.0000
  C   C125      1.0  0.73280  0.56770  0.58890  1.0000
  C   C126      1.0  0.76720  0.56770  0.41110  1.0000
  C   C127      1.0  0.23280  0.06770  0.08890  1.0000
  C   C128      1.0  0.26720  0.06770  0.91110  1.0000
  H   H73       1.0  0.31498  0.44482  0.41025  1.0000
  H   H74       1.0  0.18502  0.44482  0.58975  1.0000
  H   H75       1.0  0.81498  0.94482  0.91025  1.0000
  H   H76       1.0  0.68502  0.94482  0.08975  1.0000
  H   H77       1.0  0.68502  0.55518  0.58975  1.0000
  H   H78       1.0  0.81498  0.55518  0.41025  1.0000
  H   H79       1.0  0.18502  0.05518  0.08975  1.0000
  H   H80       1.0  0.31498  0.05518  0.91025  1.0000
  C   C129      1.0  0.21860  0.49820  0.41320  1.0000
  C   C130      1.0  0.28140  0.49820  0.58680  1.0000
  C   C131      1.0  0.71860  0.99820  0.91320  1.0000
  C   C132      1.0  0.78140  0.99820  0.08680  1.0000
  C   C133      1.0  0.78140  0.50180  0.58680  1.0000
  C   C134      1.0  0.71860  0.50180  0.41320  1.0000
  C   C135      1.0  0.28140  0.00180  0.08680  1.0000
  C   C136      1.0  0.21860  0.00180  0.91320  1.0000
  H   H81       1.0  0.23465  0.55482  0.41360  1.0000
  H   H82       1.0  0.26535  0.55482  0.58640  1.0000
  H   H83       1.0  0.73465  0.05482  0.91360  1.0000
  H   H84       1.0  0.76535  0.05482  0.08640  1.0000
  H   H85       1.0  0.76535  0.44518  0.58640  1.0000
  H   H86       1.0  0.73465  0.44518  0.41360  1.0000
  H   H87       1.0  0.26535  0.94518  0.08640  1.0000
  H   H88       1.0  0.23465  0.94518  0.91360  1.0000
  C   C137      1.0  0.93850  0.57470  0.31670  1.0000
  C   C138      1.0  0.56150  0.57470  0.68330  1.0000
  C   C139      1.0  0.43850  0.07470  0.81670  1.0000
  C   C140      1.0  0.06150  0.07470  0.18330  1.0000
  C   C141      1.0  0.06150  0.42530  0.68330  1.0000
  C   C142      1.0  0.43850  0.42530  0.31670  1.0000
  C   C143      1.0  0.56150  0.92530  0.18330  1.0000
  C   C144      1.0  0.93850  0.92530  0.81670  1.0000
  H   H89       1.0  0.92058  0.56769  0.35732  1.0000
  H   H90       1.0  0.57942  0.56769  0.64268  1.0000
  H   H91       1.0  0.42058  0.06769  0.85732  1.0000
  H   H92       1.0  0.07942  0.06769  0.14268  1.0000
  H   H93       1.0  0.07942  0.43231  0.64268  1.0000
  H   H94       1.0  0.42058  0.43231  0.35732  1.0000
  H   H95       1.0  0.57942  0.93231  0.14268  1.0000
  H   H96       1.0  0.92058  0.93231  0.85732  1.0000
  O   O41       1.0  0.35230  0.28740  0.38820  1.0000
  O   O42       1.0  0.14770  0.28740  0.61180  1.0000
  O   O43       1.0  0.85230  0.78740  0.88820  1.0000
  O   O44       1.0  0.64770  0.78740  0.11180  1.0000
  O   O45       1.0  0.64770  0.71260  0.61180  1.0000
  O   O46       1.0  0.85230  0.71260  0.38820  1.0000
  O   O47       1.0  0.14770  0.21260  0.11180  1.0000
  O   O48       1.0  0.35230  0.21260  0.88820  1.0000
