data_image0
_chemical_formula_structural       Eu2O20N2C6H2C2H2C4H2C6H2C8H2C2H2C4H2C4H2C2H2C4H8
_chemical_formula_sum              "Eu2 O20 N2 C42 H26"
_cell_length_a       9.998
_cell_length_b       11.005
_cell_length_c       11.883
_cell_angle_alpha    86.1
_cell_angle_beta     74.54
_cell_angle_gamma    68.36

_space_group_name_H-M_alt    "P 1"
_space_group_IT_number       1

loop_
  _space_group_symop_operation_xyz
  'x, y, z'

loop_
  _atom_site_type_symbol
  _atom_site_label
  _atom_site_symmetry_multiplicity
  _atom_site_fract_x
  _atom_site_fract_y
  _atom_site_fract_z
  _atom_site_occupancy
  Eu  Eu1       1.0  0.10366  0.37999  0.24076  1.0000
  Eu  Eu2       1.0  0.89634  0.62001  0.75924  1.0000
  O   O1        1.0  0.17080  0.99210  0.14930  1.0000
  O   O2        1.0  0.82920  0.00790  0.85070  1.0000
  O   O3        1.0  0.85150  0.44750  0.66820  1.0000
  O   O4        1.0  0.14850  0.55250  0.33180  1.0000
  O   O5        1.0  0.66130  0.63440  0.69970  1.0000
  O   O6        1.0  0.33870  0.36560  0.30030  1.0000
  O   O7        1.0  0.67810  0.69330  0.92750  1.0000
  O   O8        1.0  0.32190  0.30670  0.07250  1.0000
  O   O9        1.0  0.16650  0.15730  0.24910  1.0000
  O   O10       1.0  0.83350  0.84270  0.75090  1.0000
  O   O11       1.0  0.87840  0.69060  0.97150  1.0000
  O   O12       1.0  0.12160  0.30940  0.02850  1.0000
  O   O13       1.0  0.15230  0.60520  0.75150  1.0000
  O   O14       1.0  0.84770  0.39480  0.24850  1.0000
  O   O15       1.0  0.14050  0.45080  0.65130  1.0000
  O   O16       1.0  0.85950  0.54920  0.34870  1.0000
  O   O17       1.0  0.05110  0.57170  0.11820  1.0000
  O   O18       1.0  0.94890  0.42830  0.88180  1.0000
  O   O19       1.0  0.04570  0.32550  0.44250  1.0000
  O   O20       1.0  0.95430  0.67450  0.55750  1.0000
  N   N1        1.0  0.85290  0.91700  0.46300  1.0000
  N   N2        1.0  0.14710  0.08300  0.53700  1.0000
  C   C1        1.0  0.71710  0.51590  0.67070  1.0000
  C   C2        1.0  0.28290  0.48410  0.32930  1.0000
  C   C3        1.0  0.62360  0.44910  0.63950  1.0000
  C   C4        1.0  0.37640  0.55090  0.36050  1.0000
  C   C5        1.0  0.46950  0.50900  0.66910  1.0000
  C   C6        1.0  0.53050  0.49100  0.33090  1.0000
  H   H1        1.0  0.42450  0.59240  0.70420  1.0000
  H   H2        1.0  0.57550  0.40760  0.29580  1.0000
  C   C7        1.0  0.69160  0.32610  0.58250  1.0000
  C   C8        1.0  0.30840  0.67390  0.41750  1.0000
  H   H3        1.0  0.79470  0.28510  0.56430  1.0000
  H   H4        1.0  0.20530  0.71490  0.43570  1.0000
  C   C9        1.0  0.60640  0.26460  0.55270  1.0000
  C   C10       1.0  0.39360  0.73540  0.44730  1.0000
  C   C11       1.0  0.45050  0.32440  0.58680  1.0000
  C   C12       1.0  0.54950  0.67560  0.41320  1.0000
  H   H5        1.0  0.39240  0.28280  0.56910  1.0000
  H   H6        1.0  0.60760  0.71720  0.43090  1.0000
  C   C13       1.0  0.67440  0.13660  0.48810  1.0000
  C   C14       1.0  0.32560  0.86340  0.51190  1.0000
  C   C15       1.0  0.39600  0.97980  0.18740  1.0000
  C   C16       1.0  0.60400  0.02020  0.81260  1.0000
  C   C17       1.0  0.45750  0.01460  0.26640  1.0000
  C   C18       1.0  0.54250  0.98540  0.73360  1.0000
  H   H7        1.0  0.39700  0.07980  0.32310  1.0000
  H   H8        1.0  0.60300  0.92020  0.67690  1.0000
  C   C19       1.0  0.73760  0.72790  0.99260  1.0000
  C   C20       1.0  0.26240  0.27210  0.00740  1.0000
  C   C21       1.0  0.63980  0.82360  0.09300  1.0000
  C   C22       1.0  0.36020  0.17640  0.90700  1.0000
  C   C23       1.0  0.21520  0.50270  0.68470  1.0000
  C   C24       1.0  0.78480  0.49730  0.31530  1.0000
  C   C25       1.0  0.61220  0.10960  0.40540  1.0000
  C   C26       1.0  0.38780  0.89040  0.59460  1.0000
  H   H9        1.0  0.53100  0.17420  0.38660  1.0000
  H   H10       1.0  0.46900  0.82580  0.61340  1.0000
  C   C27       1.0  0.48720  0.88240  0.10220  1.0000
  C   C28       1.0  0.51280  0.11760  0.89780  1.0000
  H   H11       1.0  0.44620  0.85630  0.05100  1.0000
  H   H12       1.0  0.55380  0.14370  0.94900  1.0000
  C   C29       1.0  0.60970  0.95290  0.26180  1.0000
  C   C30       1.0  0.39030  0.04710  0.73820  1.0000
  C   C31       1.0  0.69860  0.85940  0.17320  1.0000
  C   C32       1.0  0.30140  0.14060  0.82680  1.0000
  H   H13       1.0  0.80010  0.81980  0.16750  1.0000
  H   H14       1.0  0.19990  0.18020  0.83250  1.0000
  C   C33       1.0  0.67150  0.98560  0.35080  1.0000
  C   C34       1.0  0.32850  0.01440  0.64920  1.0000
  C   C35       1.0  0.78940  0.89270  0.38570  1.0000
  C   C36       1.0  0.21060  0.10730  0.61430  1.0000
  H   H15       1.0  0.82660  0.80840  0.35340  1.0000
  H   H16       1.0  0.17340  0.19160  0.64660  1.0000
  C   C37       1.0  0.79730  0.03670  0.51210  1.0000
  C   C38       1.0  0.20270  0.96330  0.48790  1.0000
  H   H17       1.0  0.84240  0.05440  0.56470  1.0000
  H   H18       1.0  0.15760  0.94560  0.43530  1.0000
  C   C39       1.0  0.23250  0.04670  0.19500  1.0000
  C   C40       1.0  0.76750  0.95330  0.80500  1.0000
  C   C41       1.0  0.38160  0.44500  0.64660  1.0000
  C   C42       1.0  0.61840  0.55500  0.35340  1.0000
  H   H19       1.0  0.08500  0.23700  0.45700  1.0000
  H   H20       1.0  0.91500  0.76300  0.54300  1.0000
  H   H21       1.0  0.02100  0.57500  0.06600  1.0000
  H   H22       1.0  0.97900  0.42500  0.93400  1.0000
  H   H23       1.0  0.06100  0.63900  0.14200  1.0000
  H   H24       1.0  0.93900  0.36100  0.85800  1.0000
  H   H25       1.0  0.03300  0.37400  0.48200  1.0000
  H   H26       1.0  0.96700  0.62600  0.51800  1.0000
