data_image0
_chemical_formula_structural       Ag4S8C20H4C4H12C8H12N12H8O28F24
_chemical_formula_sum              "Ag4 S8 C32 H36 N12 O28 F24"
_cell_length_a       16.597
_cell_length_b       12.1135
_cell_length_c       12.9058
_cell_angle_alpha    90
_cell_angle_beta     106.227
_cell_angle_gamma    90

_space_group_name_H-M_alt    "P 1"
_space_group_IT_number       1

loop_
  _space_group_symop_operation_xyz
  'x, y, z'

loop_
  _atom_site_type_symbol
  _atom_site_label
  _atom_site_symmetry_multiplicity
  _atom_site_fract_x
  _atom_site_fract_y
  _atom_site_fract_z
  _atom_site_occupancy
  Ag  Ag1       1.0  0.09141  0.77779  0.18200  1.0000
  Ag  Ag2       1.0  0.90859  0.27779  0.31800  1.0000
  Ag  Ag3       1.0  0.90859  0.22221  0.81800  1.0000
  Ag  Ag4       1.0  0.09141  0.72221  0.68200  1.0000
  S   S1        1.0  0.27682  0.61951  0.22946  1.0000
  S   S2        1.0  0.72318  0.11951  0.27054  1.0000
  S   S3        1.0  0.72318  0.38049  0.77054  1.0000
  S   S4        1.0  0.27682  0.88049  0.72946  1.0000
  S   S5        1.0  0.23926  0.01915  0.18232  1.0000
  S   S6        1.0  0.76074  0.51915  0.31768  1.0000
  S   S7        1.0  0.76074  0.98085  0.81768  1.0000
  S   S8        1.0  0.23926  0.48085  0.68232  1.0000
  C   C1        1.0  0.31040  0.50670  0.32460  1.0000
  C   C2        1.0  0.68960  0.00670  0.17540  1.0000
  C   C3        1.0  0.68960  0.49330  0.67540  1.0000
  C   C4        1.0  0.31040  0.99330  0.82460  1.0000
  C   C5        1.0  0.08000  0.73010  0.92890  1.0000
  C   C6        1.0  0.92000  0.23010  0.57110  1.0000
  C   C7        1.0  0.92000  0.26990  0.07110  1.0000
  C   C8        1.0  0.08000  0.76990  0.42890  1.0000
  C   C9        1.0  0.97770  0.65090  0.99160  1.0000
  C   C10       1.0  0.02230  0.15090  0.50840  1.0000
  C   C11       1.0  0.02230  0.34910  0.00840  1.0000
  C   C12       1.0  0.97770  0.84910  0.49160  1.0000
  C   C13       1.0  0.98690  0.61140  0.81730  1.0000
  C   C14       1.0  0.01310  0.11140  0.68270  1.0000
  C   C15       1.0  0.01310  0.38860  0.18270  1.0000
  C   C16       1.0  0.98690  0.88860  0.31730  1.0000
  C   C17       1.0  0.94620  0.59430  0.89550  1.0000
  C   C18       1.0  0.05380  0.09430  0.60450  1.0000
  C   C19       1.0  0.05380  0.40570  0.10450  1.0000
  C   C20       1.0  0.94620  0.90570  0.39550  1.0000
  H   H1        1.0  0.89920  0.54650  0.88410  1.0000
  H   H2        1.0  0.10080  0.04650  0.61590  1.0000
  H   H3        1.0  0.10080  0.45350  0.11590  1.0000
  H   H4        1.0  0.89920  0.95350  0.38410  1.0000
  C   C21       1.0  0.86750  0.58740  0.06200  1.0000
  C   C22       1.0  0.13250  0.08740  0.43800  1.0000
  C   C23       1.0  0.13250  0.41260  0.93800  1.0000
  C   C24       1.0  0.86750  0.91260  0.56200  1.0000
  H   H5        1.0  0.85090  0.59090  0.12900  1.0000
  H   H6        1.0  0.14910  0.09090  0.37100  1.0000
  H   H7        1.0  0.14910  0.40910  0.87100  1.0000
  H   H8        1.0  0.85090  0.90910  0.62900  1.0000
  H   H9        1.0  0.87530  0.51010  0.04440  1.0000
  H   H10       1.0  0.12470  0.01010  0.45560  1.0000
  H   H11       1.0  0.12470  0.48990  0.95560  1.0000
  H   H12       1.0  0.87530  0.98990  0.54440  1.0000
  H   H13       1.0  0.82370  0.62080  0.00320  1.0000
  H   H14       1.0  0.17630  0.12080  0.49680  1.0000
  H   H15       1.0  0.17630  0.37920  0.99680  1.0000
  H   H16       1.0  0.82370  0.87920  0.50320  1.0000
  C   C25       1.0  0.17900  0.14390  0.13690  1.0000
  C   C26       1.0  0.82100  0.64390  0.36310  1.0000
  C   C27       1.0  0.82100  0.85610  0.86310  1.0000
  C   C28       1.0  0.17900  0.35610  0.63690  1.0000
  C   C29       1.0  0.95990  0.55260  0.71210  1.0000
  C   C30       1.0  0.04010  0.05260  0.78790  1.0000
  C   C31       1.0  0.04010  0.44740  0.28790  1.0000
  C   C32       1.0  0.95990  0.94740  0.21210  1.0000
  H   H17       1.0  0.91240  0.50410  0.71130  1.0000
  H   H18       1.0  0.08760  0.00410  0.78870  1.0000
  H   H19       1.0  0.08760  0.49590  0.28870  1.0000
  H   H20       1.0  0.91240  0.99590  0.21130  1.0000
  H   H21       1.0  0.94290  0.60650  0.65350  1.0000
  H   H22       1.0  0.05710  0.10650  0.84650  1.0000
  H   H23       1.0  0.05710  0.39350  0.34650  1.0000
  H   H24       1.0  0.94290  0.89350  0.15350  1.0000
  H   H25       1.0  0.00660  0.50830  0.70230  1.0000
  H   H26       1.0  0.99340  0.00830  0.79770  1.0000
  H   H27       1.0  0.99340  0.49170  0.29770  1.0000
  H   H28       1.0  0.00660  0.99170  0.20230  1.0000
  N   N1        1.0  0.04470  0.71590  0.01060  1.0000
  N   N2        1.0  0.95530  0.21590  0.48940  1.0000
  N   N3        1.0  0.95530  0.28410  0.98940  1.0000
  N   N4        1.0  0.04470  0.78410  0.51060  1.0000
  N   N5        1.0  0.05190  0.68040  0.83150  1.0000
  N   N6        1.0  0.94810  0.18040  0.66850  1.0000
  N   N7        1.0  0.94810  0.31960  0.16850  1.0000
  N   N8        1.0  0.05190  0.81960  0.33150  1.0000
  N   N9        1.0  0.14580  0.79600  0.94570  1.0000
  N   N10       1.0  0.85420  0.29600  0.55430  1.0000
  N   N11       1.0  0.85420  0.20400  0.05430  1.0000
  N   N12       1.0  0.14580  0.70400  0.44570  1.0000
  H   H29       1.0  0.17030  0.80660  0.89420  1.0000
  H   H30       1.0  0.82970  0.30660  0.60580  1.0000
  H   H31       1.0  0.82970  0.19340  0.10580  1.0000
  H   H32       1.0  0.17030  0.69340  0.39420  1.0000
  H   H33       1.0  0.16510  0.82920  0.00840  1.0000
  H   H34       1.0  0.83490  0.32920  0.49160  1.0000
  H   H35       1.0  0.83490  0.17080  0.99160  1.0000
  H   H36       1.0  0.16510  0.67080  0.50840  1.0000
  O   O1        1.0  0.35260  0.67100  0.22940  1.0000
  O   O2        1.0  0.64740  0.17100  0.27060  1.0000
  O   O3        1.0  0.64740  0.32900  0.77060  1.0000
  O   O4        1.0  0.35260  0.82900  0.72940  1.0000
  O   O5        1.0  0.23480  0.56730  0.13230  1.0000
  O   O6        1.0  0.76520  0.06730  0.36770  1.0000
  O   O7        1.0  0.76520  0.43270  0.86770  1.0000
  O   O8        1.0  0.23480  0.93270  0.63230  1.0000
  O   O9        1.0  0.22610  0.68410  0.27850  1.0000
  O   O10       1.0  0.77390  0.18410  0.22150  1.0000
  O   O11       1.0  0.77390  0.31590  0.72150  1.0000
  O   O12       1.0  0.22610  0.81590  0.77850  1.0000
  O   O13       1.0  0.30810  0.03120  0.13670  1.0000
  O   O14       1.0  0.69190  0.53120  0.36330  1.0000
  O   O15       1.0  0.69190  0.96880  0.86330  1.0000
  O   O16       1.0  0.30810  0.46880  0.63670  1.0000
  O   O17       1.0  0.25910  0.02440  0.29540  1.0000
  O   O18       1.0  0.74090  0.52440  0.20460  1.0000
  O   O19       1.0  0.74090  0.97560  0.70460  1.0000
  O   O20       1.0  0.25910  0.47560  0.79540  1.0000
  O   O21       1.0  0.18150  0.93420  0.13390  1.0000
  O   O22       1.0  0.81850  0.43420  0.36610  1.0000
  O   O23       1.0  0.81850  0.06580  0.86610  1.0000
  O   O24       1.0  0.18150  0.56580  0.63390  1.0000
  O   O25       1.0  0.94468  0.64640  0.07560  1.0000
  O   O26       1.0  0.05532  0.14640  0.42440  1.0000
  O   O27       1.0  0.05532  0.35360  0.92440  1.0000
  O   O28       1.0  0.94468  0.85360  0.57560  1.0000
  F   F1        1.0  0.24740  0.45220  0.34080  1.0000
  F   F2        1.0  0.75260  0.95220  0.15920  1.0000
  F   F3        1.0  0.75260  0.54780  0.65920  1.0000
  F   F4        1.0  0.24740  0.04780  0.84080  1.0000
  F   F5        1.0  0.35710  0.53870  0.41490  1.0000
  F   F6        1.0  0.64290  0.03870  0.08510  1.0000
  F   F7        1.0  0.64290  0.46130  0.58510  1.0000
  F   F8        1.0  0.35710  0.96130  0.91490  1.0000
  F   F9        1.0  0.11180  0.14790  0.17070  1.0000
  F   F10       1.0  0.88820  0.64790  0.32930  1.0000
  F   F11       1.0  0.88820  0.85210  0.82930  1.0000
  F   F12       1.0  0.11180  0.35210  0.67070  1.0000
  F   F13       1.0  0.22470  0.23260  0.17660  1.0000
  F   F14       1.0  0.77530  0.73260  0.32340  1.0000
  F   F15       1.0  0.77530  0.76740  0.82340  1.0000
  F   F16       1.0  0.22470  0.26740  0.67660  1.0000
  F   F17       1.0  0.15910  0.15610  0.03410  1.0000
  F   F18       1.0  0.84090  0.65610  0.46590  1.0000
  F   F19       1.0  0.84090  0.84390  0.96590  1.0000
  F   F20       1.0  0.15910  0.34390  0.53410  1.0000
  F   F21       1.0  0.35200  0.43200  0.28610  1.0000
  F   F22       1.0  0.64800  0.93200  0.21390  1.0000
  F   F23       1.0  0.64800  0.56800  0.71390  1.0000
  F   F24       1.0  0.35200  0.06800  0.78610  1.0000
