data_image0
_chemical_formula_structural       MnO10N4C16H14
_chemical_formula_sum              "Mn1 O10 N4 C16 H14"
_cell_length_a       10.172
_cell_length_b       10.685
_cell_length_c       11.292
_cell_angle_alpha    115.791
_cell_angle_beta     91.574
_cell_angle_gamma    111.24

_space_group_name_H-M_alt    "P 1"
_space_group_IT_number       1

loop_
  _space_group_symop_operation_xyz
  'x, y, z'

loop_
  _atom_site_type_symbol
  _atom_site_label
  _atom_site_symmetry_multiplicity
  _atom_site_fract_x
  _atom_site_fract_y
  _atom_site_fract_z
  _atom_site_occupancy
  Mn  Mn1       1.0  0.50000  0.50000  0.00000  1.0000
  O   O1        1.0  0.29081  0.31990  0.98695  1.0000
  O   O2        1.0  0.70919  0.68010  0.01305  1.0000
  O   O3        1.0  0.38928  0.21726  0.07814  1.0000
  O   O4        1.0  0.61072  0.78274  0.92186  1.0000
  O   O5        1.0  0.26917  0.01918  0.23829  1.0000
  O   O6        1.0  0.73083  0.98082  0.76171  1.0000
  O   O7        1.0  0.26717  0.24842  0.32171  1.0000
  O   O8        1.0  0.73283  0.75158  0.67829  1.0000
  O   O9        1.0  0.62545  0.38569  0.03674  1.0000
  O   O10       1.0  0.37455  0.61431  0.96326  1.0000
  N   N1        1.0  0.52890  0.63440  0.22264  1.0000
  N   N2        1.0  0.47110  0.36560  0.77736  1.0000
  N   N3        1.0  0.60210  0.71780  0.43867  1.0000
  N   N4        1.0  0.39790  0.28220  0.56133  1.0000
  C   C1        1.0  0.28406  0.22620  0.03008  1.0000
  C   C2        1.0  0.71594  0.77380  0.96992  1.0000
  C   C3        1.0  0.22622  0.11240  0.23188  1.0000
  C   C4        1.0  0.77378  0.88760  0.76812  1.0000
  C   C5        1.0  0.13554  0.11360  0.01903  1.0000
  C   C6        1.0  0.86446  0.88640  0.98097  1.0000
  C   C7        1.0  0.02310  0.05880  0.91185  1.0000
  C   C8        1.0  0.97690  0.94120  0.08815  1.0000
  C   C9        1.0  0.11185  0.05430  0.10908  1.0000
  C   C10       1.0  0.88815  0.94570  0.89092  1.0000
  C   C11       1.0  0.54990  0.59670  0.31590  1.0000
  C   C12       1.0  0.45010  0.40330  0.68410  1.0000
  C   C13       1.0  0.61640  0.84150  0.42500  1.0000
  C   C14       1.0  0.38360  0.15850  0.57500  1.0000
  C   C15       1.0  0.57140  0.78970  0.29200  1.0000
  C   C16       1.0  0.42860  0.21030  0.70800  1.0000
  H   H1        1.0  0.03840  0.09910  0.85260  1.0000
  H   H2        1.0  0.96160  0.90090  0.14740  1.0000
  H   H3        1.0  0.53010  0.49720  0.29800  1.0000
  H   H4        1.0  0.46990  0.50280  0.70200  1.0000
  H   H5        1.0  0.65090  0.94250  0.49340  1.0000
  H   H6        1.0  0.34910  0.05750  0.50660  1.0000
  H   H7        1.0  0.57030  0.85050  0.25310  1.0000
  H   H8        1.0  0.42970  0.14950  0.74690  1.0000
  H   H9        1.0  0.62330  0.71770  0.51300  1.0000
  H   H10       1.0  0.37670  0.28230  0.48700  1.0000
  H   H11       1.0  0.56020  0.32060  0.05370  1.0000
  H   H12       1.0  0.43980  0.67940  0.94630  1.0000
  H   H13       1.0  0.68180  0.34000  0.99800  1.0000
  H   H14       1.0  0.31820  0.66000  0.00200  1.0000
