data_image0
_chemical_formula_structural       NiN4O10C14H2C2H12
_chemical_formula_sum              "Ni1 N4 O10 C16 H14"
_cell_length_a       9.9992
_cell_length_b       10.6176
_cell_length_c       11.0964
_cell_angle_alpha    115.473
_cell_angle_beta     91.344
_cell_angle_gamma    111.745

_space_group_name_H-M_alt    "P 1"
_space_group_IT_number       1

loop_
  _space_group_symop_operation_xyz
  'x, y, z'

loop_
  _atom_site_type_symbol
  _atom_site_label
  _atom_site_symmetry_multiplicity
  _atom_site_fract_x
  _atom_site_fract_y
  _atom_site_fract_z
  _atom_site_occupancy
  Ni  Ni1       1.0  0.50000  0.00000  0.00000  1.0000
  N   N1        1.0  0.53030  0.13070  0.20950  1.0000
  N   N2        1.0  0.46970  0.86930  0.79050  1.0000
  N   N3        1.0  0.59750  0.21600  0.42960  1.0000
  N   N4        1.0  0.40250  0.78400  0.57040  1.0000
  O   O1        1.0  0.73040  0.24860  0.67259  1.0000
  O   O2        1.0  0.26960  0.75140  0.32741  1.0000
  O   O3        1.0  0.72830  0.47780  0.75370  1.0000
  O   O4        1.0  0.27170  0.52220  0.24630  1.0000
  O   O5        1.0  0.60280  0.28140  0.92020  1.0000
  O   O6        1.0  0.39720  0.71860  0.07980  1.0000
  O   O7        1.0  0.70146  0.17170  0.00620  1.0000
  O   O8        1.0  0.29854  0.82830  0.99380  1.0000
  O   O9        1.0  0.62860  0.90010  0.04020  1.0000
  O   O10       1.0  0.37140  0.09990  0.95980  1.0000
  C   C1        1.0  0.61630  0.34020  0.41330  1.0000
  C   C2        1.0  0.38370  0.65980  0.58670  1.0000
  C   C3        1.0  0.57340  0.28670  0.27710  1.0000
  C   C4        1.0  0.42660  0.71330  0.72290  1.0000
  C   C5        1.0  0.54640  0.09380  0.30550  1.0000
  C   C6        1.0  0.45360  0.90620  0.69450  1.0000
  C   C7        1.0  0.70960  0.27000  0.96640  1.0000
  C   C8        1.0  0.29040  0.73000  0.03360  1.0000
  C   C9        1.0  0.86160  0.38370  0.97900  1.0000
  C   C10       1.0  0.13840  0.61630  0.02100  1.0000
  C   C11       1.0  0.88710  0.44450  0.88780  1.0000
  C   C12       1.0  0.11290  0.55550  0.11220  1.0000
  C   C13       1.0  0.02510  0.56000  0.91070  1.0000
  C   C14       1.0  0.97490  0.44000  0.08930  1.0000
  H   H1        1.0  0.04230  0.60100  0.85050  1.0000
  H   H2        1.0  0.95770  0.39900  0.14950  1.0000
  C   C15       1.0  0.77150  0.38530  0.76220  1.0000
  C   C16       1.0  0.22850  0.61470  0.23780  1.0000
  H   H3        1.0  0.68200  0.85600  0.99000  1.0000
  H   H4        1.0  0.31800  0.14400  0.01000  1.0000
  H   H5        1.0  0.62300  0.22300  0.49500  1.0000
  H   H6        1.0  0.37700  0.77700  0.50500  1.0000
  H   H7        1.0  0.56200  0.82700  0.05300  1.0000
  H   H8        1.0  0.43800  0.17300  0.94700  1.0000
  H   H9        1.0  0.63800  0.43300  0.49300  1.0000
  H   H10       1.0  0.36200  0.56700  0.50700  1.0000
  H   H11       1.0  0.56700  0.34300  0.23800  1.0000
  H   H12       1.0  0.43300  0.65700  0.76200  1.0000
  H   H13       1.0  0.52600  0.99900  0.28900  1.0000
  H   H14       1.0  0.47400  0.00100  0.71100  1.0000
