data_image0
_chemical_formula_structural       Y8O72N16C8H16C16H16C16H16C8H16C8H16C8H16C16H16C8H16
_chemical_formula_sum              "Y8 O72 N16 C88 H128"
_cell_length_a       29.041
_cell_length_b       9.1674
_cell_length_c       20.18
_cell_angle_alpha    90
_cell_angle_beta     124.775
_cell_angle_gamma    90

_space_group_name_H-M_alt    "P 1"
_space_group_IT_number       1

loop_
  _space_group_symop_operation_xyz
  'x, y, z'

loop_
  _atom_site_type_symbol
  _atom_site_label
  _atom_site_symmetry_multiplicity
  _atom_site_fract_x
  _atom_site_fract_y
  _atom_site_fract_z
  _atom_site_occupancy
  Y   Y1        1.0  0.17794  0.69468  0.65640  1.0000
  Y   Y2        1.0  0.82206  0.69468  0.84360  1.0000
  Y   Y3        1.0  0.67794  0.19468  0.65640  1.0000
  Y   Y4        1.0  0.32206  0.19468  0.84360  1.0000
  Y   Y5        1.0  0.82206  0.30532  0.34360  1.0000
  Y   Y6        1.0  0.17794  0.30532  0.15640  1.0000
  Y   Y7        1.0  0.32206  0.80532  0.34360  1.0000
  Y   Y8        1.0  0.67794  0.80532  0.15640  1.0000
  O   O1        1.0  0.22092  0.91759  0.70755  1.0000
  O   O2        1.0  0.77908  0.91759  0.79245  1.0000
  O   O3        1.0  0.72092  0.41759  0.70755  1.0000
  O   O4        1.0  0.27908  0.41759  0.79245  1.0000
  O   O5        1.0  0.77908  0.08241  0.29245  1.0000
  O   O6        1.0  0.22092  0.08241  0.20755  1.0000
  O   O7        1.0  0.27908  0.58241  0.29245  1.0000
  O   O8        1.0  0.72092  0.58241  0.20755  1.0000
  O   O9        1.0  0.22781  0.13342  0.76369  1.0000
  O   O10       1.0  0.77219  0.13342  0.73631  1.0000
  O   O11       1.0  0.72781  0.63342  0.76369  1.0000
  O   O12       1.0  0.27219  0.63342  0.73631  1.0000
  O   O13       1.0  0.77219  0.86658  0.23631  1.0000
  O   O14       1.0  0.22781  0.86658  0.26369  1.0000
  O   O15       1.0  0.27219  0.36658  0.23631  1.0000
  O   O16       1.0  0.72781  0.36658  0.26369  1.0000
  O   O17       1.0  0.09843  0.70669  0.52509  1.0000
  O   O18       1.0  0.90157  0.70669  0.97491  1.0000
  O   O19       1.0  0.59843  0.20669  0.52509  1.0000
  O   O20       1.0  0.40157  0.20669  0.97491  1.0000
  O   O21       1.0  0.90157  0.29331  0.47491  1.0000
  O   O22       1.0  0.09843  0.29331  0.02509  1.0000
  O   O23       1.0  0.40157  0.79331  0.47491  1.0000
  O   O24       1.0  0.59843  0.79331  0.02509  1.0000
  O   O25       1.0  0.03628  0.84945  0.42291  1.0000
  O   O26       1.0  0.96372  0.84945  0.07709  1.0000
  O   O27       1.0  0.53628  0.34945  0.42291  1.0000
  O   O28       1.0  0.46372  0.34945  0.07709  1.0000
  O   O29       1.0  0.96372  0.15055  0.57709  1.0000
  O   O30       1.0  0.03628  0.15055  0.92291  1.0000
  O   O31       1.0  0.46372  0.65055  0.57709  1.0000
  O   O32       1.0  0.53628  0.65055  0.92291  1.0000
  O   O33       1.0  0.17423  0.46778  0.60503  1.0000
  O   O34       1.0  0.82577  0.46778  0.89497  1.0000
  O   O35       1.0  0.67423  0.96778  0.60503  1.0000
  O   O36       1.0  0.32577  0.96778  0.89497  1.0000
  O   O37       1.0  0.82577  0.53222  0.39497  1.0000
  O   O38       1.0  0.17423  0.53222  0.10503  1.0000
  O   O39       1.0  0.32577  0.03222  0.39497  1.0000
  O   O40       1.0  0.67423  0.03222  0.10503  1.0000
  O   O41       1.0  0.12330  0.27793  0.52895  1.0000
  O   O42       1.0  0.87670  0.27793  0.97105  1.0000
  O   O43       1.0  0.62330  0.77793  0.52895  1.0000
  O   O44       1.0  0.37670  0.77793  0.97105  1.0000
  O   O45       1.0  0.87670  0.72207  0.47105  1.0000
  O   O46       1.0  0.12330  0.72207  0.02895  1.0000
  O   O47       1.0  0.37670  0.22207  0.47105  1.0000
  O   O48       1.0  0.62330  0.22207  0.02895  1.0000
  O   O49       1.0  0.19269  0.66406  0.78208  1.0000
  O   O50       1.0  0.80731  0.66406  0.71792  1.0000
  O   O51       1.0  0.69269  0.16406  0.78208  1.0000
  O   O52       1.0  0.30731  0.16406  0.71792  1.0000
  O   O53       1.0  0.80731  0.33594  0.21792  1.0000
  O   O54       1.0  0.19269  0.33594  0.28208  1.0000
  O   O55       1.0  0.30731  0.83594  0.21792  1.0000
  O   O56       1.0  0.69269  0.83594  0.28208  1.0000
  O   O57       1.0  0.21070  0.49423  0.87317  1.0000
  O   O58       1.0  0.78930  0.49423  0.62683  1.0000
  O   O59       1.0  0.71070  0.99423  0.87317  1.0000
  O   O60       1.0  0.28930  0.99423  0.62683  1.0000
  O   O61       1.0  0.78930  0.50577  0.12683  1.0000
  O   O62       1.0  0.21070  0.50577  0.37317  1.0000
  O   O63       1.0  0.28930  0.00577  0.12683  1.0000
  O   O64       1.0  0.71070  0.00577  0.37317  1.0000
  O   O65       1.0  0.20901  0.76746  0.57656  1.0000
  O   O66       1.0  0.79099  0.76746  0.92344  1.0000
  O   O67       1.0  0.70901  0.26746  0.57656  1.0000
  O   O68       1.0  0.29099  0.26746  0.92344  1.0000
  O   O69       1.0  0.79099  0.23254  0.42344  1.0000
  O   O70       1.0  0.20901  0.23254  0.07656  1.0000
  O   O71       1.0  0.29099  0.73254  0.42344  1.0000
  O   O72       1.0  0.70901  0.73254  0.07656  1.0000
  N   N1        1.0  0.10900  0.89379  0.63858  1.0000
  N   N2        1.0  0.89100  0.89379  0.86142  1.0000
  N   N3        1.0  0.60900  0.39379  0.63858  1.0000
  N   N4        1.0  0.39100  0.39379  0.86142  1.0000
  N   N5        1.0  0.89100  0.10621  0.36142  1.0000
  N   N6        1.0  0.10900  0.10621  0.13858  1.0000
  N   N7        1.0  0.39100  0.60621  0.36142  1.0000
  N   N8        1.0  0.60900  0.60621  0.13858  1.0000
  N   N9        1.0  0.10924  0.51821  0.65786  1.0000
  N   N10       1.0  0.89076  0.51821  0.84214  1.0000
  N   N11       1.0  0.60924  0.01821  0.65786  1.0000
  N   N12       1.0  0.39076  0.01821  0.84214  1.0000
  N   N13       1.0  0.89076  0.48179  0.34214  1.0000
  N   N14       1.0  0.10924  0.48179  0.15786  1.0000
  N   N15       1.0  0.39076  0.98179  0.34214  1.0000
  N   N16       1.0  0.60924  0.98179  0.15786  1.0000
  C   C1        1.0  0.14052  0.01390  0.69673  1.0000
  C   C2        1.0  0.85948  0.01390  0.80327  1.0000
  C   C3        1.0  0.64052  0.51390  0.69673  1.0000
  C   C4        1.0  0.35948  0.51390  0.80327  1.0000
  C   C5        1.0  0.85948  0.98610  0.30327  1.0000
  C   C6        1.0  0.14052  0.98610  0.19673  1.0000
  C   C7        1.0  0.35948  0.48610  0.30327  1.0000
  C   C8        1.0  0.64052  0.48610  0.19673  1.0000
  H   H1        1.0  0.13970  0.99940  0.74470  1.0000
  H   H2        1.0  0.86030  0.99940  0.75530  1.0000
  H   H3        1.0  0.63970  0.49940  0.74470  1.0000
  H   H4        1.0  0.36030  0.49940  0.75530  1.0000
  H   H5        1.0  0.86030  0.00060  0.25530  1.0000
  H   H6        1.0  0.13970  0.00060  0.24470  1.0000
  H   H7        1.0  0.36030  0.50060  0.25530  1.0000
  H   H8        1.0  0.63970  0.50060  0.24470  1.0000
  H   H9        1.0  0.12160  0.10760  0.67140  1.0000
  H   H10       1.0  0.87840  0.10760  0.82860  1.0000
  H   H11       1.0  0.62160  0.60760  0.67140  1.0000
  H   H12       1.0  0.37840  0.60760  0.82860  1.0000
  H   H13       1.0  0.87840  0.89240  0.32860  1.0000
  H   H14       1.0  0.12160  0.89240  0.17140  1.0000
  H   H15       1.0  0.37840  0.39240  0.32860  1.0000
  H   H16       1.0  0.62160  0.39240  0.17140  1.0000
  C   C9        1.0  0.20079  0.02290  0.72358  1.0000
  C   C10       1.0  0.79921  0.02290  0.77642  1.0000
  C   C11       1.0  0.70079  0.52290  0.72358  1.0000
  C   C12       1.0  0.29921  0.52290  0.77642  1.0000
  C   C13       1.0  0.79921  0.97710  0.27642  1.0000
  C   C14       1.0  0.20079  0.97710  0.22358  1.0000
  C   C15       1.0  0.29921  0.47710  0.27642  1.0000
  C   C16       1.0  0.70079  0.47710  0.22358  1.0000
  C   C17       1.0  0.08708  0.94820  0.55629  1.0000
  C   C18       1.0  0.91292  0.94820  0.94371  1.0000
  C   C19       1.0  0.58708  0.44820  0.55629  1.0000
  C   C20       1.0  0.41292  0.44820  0.94371  1.0000
  C   C21       1.0  0.91292  0.05180  0.44371  1.0000
  C   C22       1.0  0.08708  0.05180  0.05629  1.0000
  C   C23       1.0  0.41292  0.55180  0.44371  1.0000
  C   C24       1.0  0.58708  0.55180  0.05629  1.0000
  H   H17       1.0  0.11570  0.01150  0.55890  1.0000
  H   H18       1.0  0.88430  0.01150  0.94110  1.0000
  H   H19       1.0  0.61570  0.51150  0.55890  1.0000
  H   H20       1.0  0.38430  0.51150  0.94110  1.0000
  H   H21       1.0  0.88430  0.98850  0.44110  1.0000
  H   H22       1.0  0.11570  0.98850  0.05890  1.0000
  H   H23       1.0  0.38430  0.48850  0.44110  1.0000
  H   H24       1.0  0.61570  0.48850  0.05890  1.0000
  H   H25       1.0  0.05330  0.00830  0.53680  1.0000
  H   H26       1.0  0.94670  0.00830  0.96320  1.0000
  H   H27       1.0  0.55330  0.50830  0.53680  1.0000
  H   H28       1.0  0.44670  0.50830  0.96320  1.0000
  H   H29       1.0  0.94670  0.99170  0.46320  1.0000
  H   H30       1.0  0.05330  0.99170  0.03680  1.0000
  H   H31       1.0  0.44670  0.49170  0.46320  1.0000
  H   H32       1.0  0.55330  0.49170  0.03680  1.0000
  C   C25       1.0  0.07205  0.82550  0.49619  1.0000
  C   C26       1.0  0.92795  0.82550  0.00381  1.0000
  C   C27       1.0  0.57205  0.32550  0.49619  1.0000
  C   C28       1.0  0.42795  0.32550  0.00381  1.0000
  C   C29       1.0  0.92795  0.17450  0.50381  1.0000
  C   C30       1.0  0.07205  0.17450  0.99619  1.0000
  C   C31       1.0  0.42795  0.67450  0.50381  1.0000
  C   C32       1.0  0.57205  0.67450  0.99619  1.0000
  C   C33       1.0  0.06148  0.85360  0.64424  1.0000
  C   C34       1.0  0.93852  0.85360  0.85576  1.0000
  C   C35       1.0  0.56148  0.35360  0.64424  1.0000
  C   C36       1.0  0.43852  0.35360  0.85576  1.0000
  C   C37       1.0  0.93852  0.14640  0.35576  1.0000
  C   C38       1.0  0.06148  0.14640  0.14424  1.0000
  C   C39       1.0  0.43852  0.64640  0.35576  1.0000
  C   C40       1.0  0.56148  0.64640  0.14424  1.0000
  H   H33       1.0  0.03300  0.93190  0.61820  1.0000
  H   H34       1.0  0.96700  0.93190  0.88180  1.0000
  H   H35       1.0  0.53300  0.43190  0.61820  1.0000
  H   H36       1.0  0.46700  0.43190  0.88180  1.0000
  H   H37       1.0  0.96700  0.06810  0.38180  1.0000
  H   H38       1.0  0.03300  0.06810  0.11820  1.0000
  H   H39       1.0  0.46700  0.56810  0.38180  1.0000
  H   H40       1.0  0.53300  0.56810  0.11820  1.0000
  H   H41       1.0  0.07570  0.85220  0.70200  1.0000
  H   H42       1.0  0.92430  0.85220  0.79800  1.0000
  H   H43       1.0  0.57570  0.35220  0.70200  1.0000
  H   H44       1.0  0.42430  0.35220  0.79800  1.0000
  H   H45       1.0  0.92430  0.14780  0.29800  1.0000
  H   H46       1.0  0.07570  0.14780  0.20200  1.0000
  H   H47       1.0  0.42430  0.64780  0.29800  1.0000
  H   H48       1.0  0.57570  0.64780  0.20200  1.0000
  C   C41       1.0  0.03234  0.70900  0.60722  1.0000
  C   C42       1.0  0.96766  0.70900  0.89278  1.0000
  C   C43       1.0  0.53234  0.20900  0.60722  1.0000
  C   C44       1.0  0.46766  0.20900  0.89278  1.0000
  C   C45       1.0  0.96766  0.29100  0.39278  1.0000
  C   C46       1.0  0.03234  0.29100  0.10722  1.0000
  C   C47       1.0  0.46766  0.79100  0.39278  1.0000
  C   C48       1.0  0.53234  0.79100  0.10722  1.0000
  H   H49       1.0  0.02850  0.69600  0.55560  1.0000
  H   H50       1.0  0.97150  0.69600  0.94440  1.0000
  H   H51       1.0  0.52850  0.19600  0.55560  1.0000
  H   H52       1.0  0.47150  0.19600  0.94440  1.0000
  H   H53       1.0  0.97150  0.30400  0.44440  1.0000
  H   H54       1.0  0.02850  0.30400  0.05560  1.0000
  H   H55       1.0  0.47150  0.80400  0.44440  1.0000
  H   H56       1.0  0.52850  0.80400  0.05560  1.0000
  H   H57       1.0  0.99410  0.71340  0.59470  1.0000
  H   H58       1.0  0.00590  0.71340  0.90530  1.0000
  H   H59       1.0  0.49410  0.21340  0.59470  1.0000
  H   H60       1.0  0.50590  0.21340  0.90530  1.0000
  H   H61       1.0  0.00590  0.28660  0.40530  1.0000
  H   H62       1.0  0.99410  0.28660  0.09470  1.0000
  H   H63       1.0  0.50590  0.78660  0.40530  1.0000
  H   H64       1.0  0.49410  0.78660  0.09470  1.0000
  C   C49       1.0  0.06217  0.57600  0.66010  1.0000
  C   C50       1.0  0.93783  0.57600  0.83990  1.0000
  C   C51       1.0  0.56217  0.07600  0.66010  1.0000
  C   C52       1.0  0.43783  0.07600  0.83990  1.0000
  C   C53       1.0  0.93783  0.42400  0.33990  1.0000
  C   C54       1.0  0.06217  0.42400  0.16010  1.0000
  C   C55       1.0  0.43783  0.92400  0.33990  1.0000
  C   C56       1.0  0.56217  0.92400  0.16010  1.0000
  H   H65       1.0  0.07690  0.60160  0.71660  1.0000
  H   H66       1.0  0.92310  0.60160  0.78340  1.0000
  H   H67       1.0  0.57690  0.10160  0.71660  1.0000
  H   H68       1.0  0.42310  0.10160  0.78340  1.0000
  H   H69       1.0  0.92310  0.39840  0.28340  1.0000
  H   H70       1.0  0.07690  0.39840  0.21660  1.0000
  H   H71       1.0  0.42310  0.89840  0.28340  1.0000
  H   H72       1.0  0.57690  0.89840  0.21660  1.0000
  H   H73       1.0  0.03430  0.49720  0.64330  1.0000
  H   H74       1.0  0.96570  0.49720  0.85670  1.0000
  H   H75       1.0  0.53430  0.99720  0.64330  1.0000
  H   H76       1.0  0.46570  0.99720  0.85670  1.0000
  H   H77       1.0  0.96570  0.50280  0.35670  1.0000
  H   H78       1.0  0.03430  0.50280  0.14330  1.0000
  H   H79       1.0  0.46570  0.00280  0.35670  1.0000
  H   H80       1.0  0.53430  0.00280  0.14330  1.0000
  C   C57       1.0  0.08712  0.42110  0.58774  1.0000
  C   C58       1.0  0.91288  0.42110  0.91226  1.0000
  C   C59       1.0  0.58712  0.92110  0.58774  1.0000
  C   C60       1.0  0.41288  0.92110  0.91226  1.0000
  C   C61       1.0  0.91288  0.57890  0.41226  1.0000
  C   C62       1.0  0.08712  0.57890  0.08774  1.0000
  C   C63       1.0  0.41288  0.07890  0.41226  1.0000
  C   C64       1.0  0.58712  0.07890  0.08774  1.0000
  H   H81       1.0  0.05510  0.46930  0.53920  1.0000
  H   H82       1.0  0.94490  0.46930  0.96080  1.0000
  H   H83       1.0  0.55510  0.96930  0.53920  1.0000
  H   H84       1.0  0.44490  0.96930  0.96080  1.0000
  H   H85       1.0  0.94490  0.53070  0.46080  1.0000
  H   H86       1.0  0.05510  0.53070  0.03920  1.0000
  H   H87       1.0  0.44490  0.03070  0.46080  1.0000
  H   H88       1.0  0.55510  0.03070  0.03920  1.0000
  H   H89       1.0  0.07320  0.33020  0.59700  1.0000
  H   H90       1.0  0.92680  0.33020  0.90300  1.0000
  H   H91       1.0  0.57320  0.83020  0.59700  1.0000
  H   H92       1.0  0.42680  0.83020  0.90300  1.0000
  H   H93       1.0  0.92680  0.66980  0.40300  1.0000
  H   H94       1.0  0.07320  0.66980  0.09700  1.0000
  H   H95       1.0  0.42680  0.16980  0.40300  1.0000
  H   H96       1.0  0.57320  0.16980  0.09700  1.0000
  C   C65       1.0  0.13145  0.38320  0.57262  1.0000
  C   C66       1.0  0.86855  0.38320  0.92738  1.0000
  C   C67       1.0  0.63145  0.88320  0.57262  1.0000
  C   C68       1.0  0.36855  0.88320  0.92738  1.0000
  C   C69       1.0  0.86855  0.61680  0.42738  1.0000
  C   C70       1.0  0.13145  0.61680  0.07262  1.0000
  C   C71       1.0  0.36855  0.11680  0.42738  1.0000
  C   C72       1.0  0.63145  0.11680  0.07262  1.0000
  C   C73       1.0  0.14720  0.43460  0.73327  1.0000
  C   C74       1.0  0.85280  0.43460  0.76673  1.0000
  C   C75       1.0  0.64720  0.93460  0.73327  1.0000
  C   C76       1.0  0.35280  0.93460  0.76673  1.0000
  C   C77       1.0  0.85280  0.56540  0.26673  1.0000
  C   C78       1.0  0.14720  0.56540  0.23327  1.0000
  C   C79       1.0  0.35280  0.06540  0.26673  1.0000
  C   C80       1.0  0.64720  0.06540  0.23327  1.0000
  H   H97       1.0  0.16950  0.36480  0.72490  1.0000
  H   H98       1.0  0.83050  0.36480  0.77510  1.0000
  H   H99       1.0  0.66950  0.86480  0.72490  1.0000
  H   H100      1.0  0.33050  0.86480  0.77510  1.0000
  H   H101      1.0  0.83050  0.63520  0.27510  1.0000
  H   H102      1.0  0.16950  0.63520  0.22490  1.0000
  H   H103      1.0  0.33050  0.13520  0.27510  1.0000
  H   H104      1.0  0.66950  0.13520  0.22490  1.0000
  H   H105      1.0  0.12470  0.37820  0.74700  1.0000
  H   H106      1.0  0.87530  0.37820  0.75300  1.0000
  H   H107      1.0  0.62470  0.87820  0.74700  1.0000
  H   H108      1.0  0.37530  0.87820  0.75300  1.0000
  H   H109      1.0  0.87530  0.62180  0.25300  1.0000
  H   H110      1.0  0.12470  0.62180  0.24700  1.0000
  H   H111      1.0  0.37530  0.12180  0.25300  1.0000
  H   H112      1.0  0.62470  0.12180  0.24700  1.0000
  C   C81       1.0  0.18643  0.53690  0.80238  1.0000
  C   C82       1.0  0.81357  0.53690  0.69762  1.0000
  C   C83       1.0  0.68643  0.03690  0.80238  1.0000
  C   C84       1.0  0.31357  0.03690  0.69762  1.0000
  C   C85       1.0  0.81357  0.46310  0.19762  1.0000
  C   C86       1.0  0.18643  0.46310  0.30238  1.0000
  C   C87       1.0  0.31357  0.96310  0.19762  1.0000
  C   C88       1.0  0.68643  0.96310  0.30238  1.0000
  H   H113      1.0  0.23150  0.83100  0.58960  1.0000
  H   H114      1.0  0.76850  0.83100  0.91040  1.0000
  H   H115      1.0  0.73150  0.33100  0.58960  1.0000
  H   H116      1.0  0.26850  0.33100  0.91040  1.0000
  H   H117      1.0  0.76850  0.16900  0.41040  1.0000
  H   H118      1.0  0.23150  0.16900  0.08960  1.0000
  H   H119      1.0  0.26850  0.66900  0.41040  1.0000
  H   H120      1.0  0.73150  0.66900  0.08960  1.0000
  H   H121      1.0  0.19610  0.74900  0.53080  1.0000
  H   H122      1.0  0.80390  0.74900  0.96920  1.0000
  H   H123      1.0  0.69610  0.24900  0.53080  1.0000
  H   H124      1.0  0.30390  0.24900  0.96920  1.0000
  H   H125      1.0  0.80390  0.25100  0.46920  1.0000
  H   H126      1.0  0.19610  0.25100  0.03080  1.0000
  H   H127      1.0  0.30390  0.75100  0.46920  1.0000
  H   H128      1.0  0.69610  0.75100  0.03080  1.0000
