data_image0
_chemical_formula_structural       Np4O40C12H4C4H4C4H4C4H4C20H4C4H4C4H4C4H4C8
_chemical_formula_sum              "Np4 O40 C64 H32"
_cell_length_a       7.748
_cell_length_b       23.051
_cell_length_c       14.608
_cell_angle_alpha    90
_cell_angle_beta     96.21
_cell_angle_gamma    90

_space_group_name_H-M_alt    "P 1"
_space_group_IT_number       1

loop_
  _space_group_symop_operation_xyz
  'x, y, z'

loop_
  _atom_site_type_symbol
  _atom_site_label
  _atom_site_symmetry_multiplicity
  _atom_site_fract_x
  _atom_site_fract_y
  _atom_site_fract_z
  _atom_site_occupancy
  Np  Np1       1.0  0.32291  0.29100  0.52507  1.0000
  Np  Np2       1.0  0.32291  0.20900  0.02507  1.0000
  Np  Np3       1.0  0.67709  0.70900  0.47493  1.0000
  Np  Np4       1.0  0.67709  0.79100  0.97493  1.0000
  O   O1        1.0  0.28010  0.30340  0.40090  1.0000
  O   O2        1.0  0.28010  0.19660  0.90090  1.0000
  O   O3        1.0  0.71990  0.69660  0.59910  1.0000
  O   O4        1.0  0.71990  0.80340  0.09910  1.0000
  O   O5        1.0  0.35220  0.27660  0.64920  1.0000
  O   O6        1.0  0.35220  0.22340  0.14920  1.0000
  O   O7        1.0  0.64780  0.72340  0.35080  1.0000
  O   O8        1.0  0.64780  0.77660  0.85080  1.0000
  O   O9        1.0  0.02070  0.33140  0.54060  1.0000
  O   O10       1.0  0.02070  0.16860  0.04060  1.0000
  O   O11       1.0  0.97930  0.66860  0.45940  1.0000
  O   O12       1.0  0.97930  0.83140  0.95940  1.0000
  O   O13       1.0  0.23590  0.39320  0.56330  1.0000
  O   O14       1.0  0.23590  0.10680  0.06330  1.0000
  O   O15       1.0  0.76410  0.60680  0.43670  1.0000
  O   O16       1.0  0.76410  0.89320  0.93670  1.0000
  O   O17       1.0  0.59710  0.33880  0.54810  1.0000
  O   O18       1.0  0.59710  0.16120  0.04810  1.0000
  O   O19       1.0  0.40290  0.66120  0.45190  1.0000
  O   O20       1.0  0.40290  0.83880  0.95190  1.0000
  O   O21       1.0  0.69870  0.36940  0.41910  1.0000
  O   O22       1.0  0.69870  0.13060  0.91910  1.0000
  O   O23       1.0  0.30130  0.63060  0.58090  1.0000
  O   O24       1.0  0.30130  0.86940  0.08090  1.0000
  O   O25       1.0  0.17120  0.19820  0.50610  1.0000
  O   O26       1.0  0.17120  0.30180  0.00610  1.0000
  O   O27       1.0  0.82880  0.80180  0.49390  1.0000
  O   O28       1.0  0.82880  0.69820  0.99390  1.0000
  O   O29       1.0  0.03090  0.14310  0.59490  1.0000
  O   O30       1.0  0.03090  0.35690  0.09490  1.0000
  O   O31       1.0  0.96910  0.85690  0.40510  1.0000
  O   O32       1.0  0.96910  0.64310  0.90510  1.0000
  O   O33       1.0  0.53350  0.21630  0.49630  1.0000
  O   O34       1.0  0.53350  0.28370  0.99630  1.0000
  O   O35       1.0  0.46650  0.78370  0.50370  1.0000
  O   O36       1.0  0.46650  0.71630  0.00370  1.0000
  O   O37       1.0  0.47910  0.15630  0.38120  1.0000
  O   O38       1.0  0.47910  0.34370  0.88120  1.0000
  O   O39       1.0  0.52090  0.84370  0.61880  1.0000
  O   O40       1.0  0.52090  0.65630  0.11880  1.0000
  C   C1        1.0  0.95230  0.42960  0.57580  1.0000
  C   C2        1.0  0.95230  0.07040  0.07580  1.0000
  C   C3        1.0  0.04770  0.57040  0.42420  1.0000
  C   C4        1.0  0.04770  0.92960  0.92420  1.0000
  C   C5        1.0  0.77240  0.42370  0.55360  1.0000
  C   C6        1.0  0.77240  0.07630  0.05360  1.0000
  C   C7        1.0  0.22760  0.57630  0.44640  1.0000
  C   C8        1.0  0.22760  0.92370  0.94640  1.0000
  C   C9        1.0  0.66420  0.46680  0.57950  1.0000
  C   C10       1.0  0.66420  0.03320  0.07950  1.0000
  C   C11       1.0  0.33580  0.53320  0.42050  1.0000
  C   C12       1.0  0.33580  0.96680  0.92050  1.0000
  H   H1        1.0  0.54460  0.46160  0.57020  1.0000
  H   H2        1.0  0.54460  0.03840  0.07020  1.0000
  H   H3        1.0  0.45540  0.53840  0.42980  1.0000
  H   H4        1.0  0.45540  0.96160  0.92980  1.0000
  C   C13       1.0  0.73120  0.51730  0.61890  1.0000
  C   C14       1.0  0.73120  0.98270  0.11890  1.0000
  C   C15       1.0  0.26880  0.48270  0.38110  1.0000
  C   C16       1.0  0.26880  0.01730  0.88110  1.0000
  H   H5        1.0  0.65660  0.54680  0.63300  1.0000
  H   H6        1.0  0.65660  0.95320  0.13300  1.0000
  H   H7        1.0  0.34340  0.45320  0.36700  1.0000
  H   H8        1.0  0.34340  0.04680  0.86700  1.0000
  C   C17       1.0  0.90740  0.52450  0.63750  1.0000
  C   C18       1.0  0.90740  0.97550  0.13750  1.0000
  C   C19       1.0  0.09260  0.47550  0.36250  1.0000
  C   C20       1.0  0.09260  0.02450  0.86250  1.0000
  H   H9        1.0  0.95200  0.55840  0.66530  1.0000
  H   H10       1.0  0.95200  0.94160  0.16530  1.0000
  H   H11       1.0  0.04800  0.44160  0.33470  1.0000
  H   H12       1.0  0.04800  0.05840  0.83470  1.0000
  C   C21       1.0  0.01740  0.48130  0.61500  1.0000
  C   C22       1.0  0.01740  0.01870  0.11500  1.0000
  C   C23       1.0  0.98260  0.51870  0.38500  1.0000
  C   C24       1.0  0.98260  0.98130  0.88500  1.0000
  H   H13       1.0  0.13680  0.48670  0.62610  1.0000
  H   H14       1.0  0.13680  0.01330  0.12610  1.0000
  H   H15       1.0  0.86320  0.51330  0.37390  1.0000
  H   H16       1.0  0.86320  0.98670  0.87390  1.0000
  C   C25       1.0  0.07380  0.38200  0.55690  1.0000
  C   C26       1.0  0.07380  0.11800  0.05690  1.0000
  C   C27       1.0  0.92620  0.61800  0.44310  1.0000
  C   C28       1.0  0.92620  0.88200  0.94310  1.0000
  C   C29       1.0  0.68630  0.37280  0.50110  1.0000
  C   C30       1.0  0.68630  0.12720  0.00110  1.0000
  C   C31       1.0  0.31370  0.62720  0.49890  1.0000
  C   C32       1.0  0.31370  0.87280  0.99890  1.0000
  C   C33       1.0  0.31360  0.11460  0.57640  1.0000
  C   C34       1.0  0.31360  0.38540  0.07640  1.0000
  C   C35       1.0  0.68640  0.88540  0.42360  1.0000
  C   C36       1.0  0.68640  0.61460  0.92360  1.0000
  C   C37       1.0  0.46260  0.12090  0.53120  1.0000
  C   C38       1.0  0.46260  0.37910  0.03120  1.0000
  C   C39       1.0  0.53740  0.87910  0.46880  1.0000
  C   C40       1.0  0.53740  0.62090  0.96880  1.0000
  C   C41       1.0  0.60000  0.08260  0.55160  1.0000
  C   C42       1.0  0.60000  0.41740  0.05160  1.0000
  C   C43       1.0  0.40000  0.91740  0.44840  1.0000
  C   C44       1.0  0.40000  0.58260  0.94840  1.0000
  H   H17       1.0  0.69830  0.08610  0.52060  1.0000
  H   H18       1.0  0.69830  0.41390  0.02060  1.0000
  H   H19       1.0  0.30170  0.91390  0.47940  1.0000
  H   H20       1.0  0.30170  0.58610  0.97940  1.0000
  C   C45       1.0  0.59400  0.04040  0.61600  1.0000
  C   C46       1.0  0.59400  0.45960  0.11600  1.0000
  C   C47       1.0  0.40600  0.95960  0.38400  1.0000
  C   C48       1.0  0.40600  0.54040  0.88400  1.0000
  H   H21       1.0  0.69180  0.01860  0.63480  1.0000
  H   H22       1.0  0.69180  0.48140  0.13480  1.0000
  H   H23       1.0  0.30820  0.98140  0.36520  1.0000
  H   H24       1.0  0.30820  0.51860  0.86520  1.0000
  C   C49       1.0  0.43700  0.03010  0.65300  1.0000
  C   C50       1.0  0.43700  0.46990  0.15300  1.0000
  C   C51       1.0  0.56300  0.96990  0.34700  1.0000
  C   C52       1.0  0.56300  0.53010  0.84700  1.0000
  H   H25       1.0  0.42350  0.99700  0.68790  1.0000
  H   H26       1.0  0.42350  0.50300  0.18790  1.0000
  H   H27       1.0  0.57650  0.00300  0.31210  1.0000
  H   H28       1.0  0.57650  0.49700  0.81210  1.0000
  C   C53       1.0  0.30700  0.06820  0.63770  1.0000
  C   C54       1.0  0.30700  0.43180  0.13770  1.0000
  C   C55       1.0  0.69300  0.93180  0.36230  1.0000
  C   C56       1.0  0.69300  0.56820  0.86230  1.0000
  H   H29       1.0  0.20920  0.06380  0.66890  1.0000
  H   H30       1.0  0.20920  0.43620  0.16890  1.0000
  H   H31       1.0  0.79080  0.93620  0.33110  1.0000
  H   H32       1.0  0.79080  0.56380  0.83110  1.0000
  C   C57       1.0  0.16120  0.15400  0.55950  1.0000
  C   C58       1.0  0.16120  0.34600  0.05950  1.0000
  C   C59       1.0  0.83880  0.84600  0.44050  1.0000
  C   C60       1.0  0.83880  0.65400  0.94050  1.0000
  C   C61       1.0  0.49210  0.16760  0.46380  1.0000
  C   C62       1.0  0.49210  0.33240  0.96380  1.0000
  C   C63       1.0  0.50790  0.83240  0.53620  1.0000
  C   C64       1.0  0.50790  0.66760  0.03620  1.0000
