data_image0
_chemical_formula_structural       U2O18N2C4H4C2H4C2H4C2H4C2H4C2U2O18N2C4H4C2H4C2H4C2H4C2H4C2
_chemical_formula_sum              "U4 O36 N4 C28 H40"
_cell_length_a       12.6023
_cell_length_b       15.809
_cell_length_c       16.0831
_cell_angle_alpha    88.907
_cell_angle_beta     68.069
_cell_angle_gamma    80.341

_space_group_name_H-M_alt    "P 1"
_space_group_IT_number       1

loop_
  _space_group_symop_operation_xyz
  'x, y, z'

loop_
  _atom_site_type_symbol
  _atom_site_label
  _atom_site_symmetry_multiplicity
  _atom_site_fract_x
  _atom_site_fract_y
  _atom_site_fract_z
  _atom_site_occupancy
  U   U1        1.0  0.71797  0.40684  0.66549  1.0000
  U   U2        1.0  0.28203  0.59316  0.33451  1.0000
  O   O1        1.0  0.73440  0.29390  0.66320  1.0000
  O   O2        1.0  0.26560  0.70610  0.33680  1.0000
  O   O3        1.0  0.69960  0.52030  0.67050  1.0000
  O   O4        1.0  0.30040  0.47970  0.32950  1.0000
  O   O5        1.0  0.91390  0.40280  0.66170  1.0000
  O   O6        1.0  0.08610  0.59720  0.33830  1.0000
  O   O7        1.0  0.89430  0.39700  0.53260  1.0000
  O   O8        1.0  0.10570  0.60300  0.46740  1.0000
  O   O9        1.0  0.67140  0.40550  0.53140  1.0000
  O   O10       1.0  0.32860  0.59450  0.46860  1.0000
  O   O11       1.0  0.52480  0.41470  0.66090  1.0000
  O   O12       1.0  0.47520  0.58530  0.33910  1.0000
  O   O13       1.0  0.55730  0.41200  0.81690  1.0000
  O   O14       1.0  0.44270  0.58800  0.18310  1.0000
  O   O15       1.0  0.72920  0.40280  0.81930  1.0000
  O   O16       1.0  0.27080  0.59720  0.18070  1.0000
  O   O17       1.0  0.57860  0.40440  0.94520  1.0000
  O   O18       1.0  0.42140  0.59560  0.05480  1.0000
  N   N1        1.0  0.61980  0.40640  0.86340  1.0000
  N   N2        1.0  0.38020  0.59360  0.13660  1.0000
  C   C1        1.0  0.96010  0.39330  0.57650  1.0000
  C   C2        1.0  0.03990  0.60670  0.42350  1.0000
  C   C3        1.0  0.09090  0.37620  0.52810  1.0000
  C   C4        1.0  0.90910  0.62380  0.47190  1.0000
  H   H1        1.0  0.11680  0.31390  0.51230  1.0000
  H   H2        1.0  0.88320  0.68610  0.48770  1.0000
  H   H3        1.0  0.11090  0.40670  0.47140  1.0000
  H   H4        1.0  0.88910  0.59330  0.52860  1.0000
  C   C5        1.0  0.15620  0.40320  0.58060  1.0000
  C   C6        1.0  0.84380  0.59680  0.41940  1.0000
  H   H5        1.0  0.13110  0.37740  0.63990  1.0000
  H   H6        1.0  0.86890  0.62260  0.36010  1.0000
  H   H7        1.0  0.13740  0.46650  0.59080  1.0000
  H   H8        1.0  0.86260  0.53350  0.40920  1.0000
  C   C7        1.0  0.28800  0.37620  0.53250  1.0000
  C   C8        1.0  0.71200  0.62380  0.46750  1.0000
  H   H9        1.0  0.30660  0.31290  0.52340  1.0000
  H   H10       1.0  0.69340  0.68710  0.47660  1.0000
  H   H11       1.0  0.31230  0.40090  0.47260  1.0000
  H   H12       1.0  0.68770  0.59910  0.52740  1.0000
  C   C9        1.0  0.35750  0.40460  0.58330  1.0000
  C   C10       1.0  0.64250  0.59540  0.41670  1.0000
  H   H13       1.0  0.33300  0.46710  0.59840  1.0000
  H   H14       1.0  0.66700  0.53290  0.40160  1.0000
  H   H15       1.0  0.34060  0.37460  0.64020  1.0000
  H   H16       1.0  0.65940  0.62540  0.35980  1.0000
  C   C11       1.0  0.48760  0.38580  0.52900  1.0000
  C   C12       1.0  0.51240  0.61420  0.47100  1.0000
  H   H17       1.0  0.50940  0.32440  0.50860  1.0000
  H   H18       1.0  0.49060  0.67560  0.49140  1.0000
  H   H19       1.0  0.50410  0.42000  0.47480  1.0000
  H   H20       1.0  0.49590  0.58000  0.52520  1.0000
  C   C13       1.0  0.56440  0.40410  0.57670  1.0000
  C   C14       1.0  0.43560  0.59590  0.42330  1.0000
  U   U3        1.0  0.31142  0.11425  0.33424  1.0000
  U   U4        1.0  0.68858  0.88575  0.66576  1.0000
  O   O19       1.0  0.34780  0.00150  0.31590  1.0000
  O   O20       1.0  0.65220  0.99850  0.68410  1.0000
  O   O21       1.0  0.27590  0.22760  0.34860  1.0000
  O   O22       1.0  0.72410  0.77240  0.65140  1.0000
  O   O23       1.0  0.50440  0.11610  0.33730  1.0000
  O   O24       1.0  0.49560  0.88390  0.66270  1.0000
  O   O25       1.0  0.36250  0.10620  0.46660  1.0000
  O   O26       1.0  0.63750  0.89380  0.53340  1.0000
  O   O27       1.0  0.14100  0.10600  0.46990  1.0000
  O   O28       1.0  0.85900  0.89400  0.53010  1.0000
  O   O29       1.0  0.11830  0.10340  0.34170  1.0000
  O   O30       1.0  0.88170  0.89660  0.65830  1.0000
  O   O31       1.0  0.28750  0.13130  0.18540  1.0000
  O   O32       1.0  0.71250  0.86870  0.81460  1.0000
  O   O33       1.0  0.46140  0.12710  0.18070  1.0000
  O   O34       1.0  0.53860  0.87290  0.81930  1.0000
  O   O35       1.0  0.42670  0.14570  0.05770  1.0000
  O   O36       1.0  0.57330  0.85430  0.94230  1.0000
  N   N3        1.0  0.39200  0.13380  0.13850  1.0000
  N   N4        1.0  0.60800  0.86620  0.86150  1.0000
  C   C15       1.0  0.46790  0.11050  0.42190  1.0000
  C   C16       1.0  0.53210  0.88950  0.57810  1.0000
  C   C17       1.0  0.55000  0.11290  0.47020  1.0000
  C   C18       1.0  0.45000  0.88710  0.52980  1.0000
  H   H21       1.0  0.53210  0.07150  0.51850  1.0000
  H   H22       1.0  0.46790  0.92850  0.48150  1.0000
  H   H23       1.0  0.53210  0.17080  0.49960  1.0000
  H   H24       1.0  0.46790  0.82920  0.50040  1.0000
  C   C19       1.0  0.68010  0.09320  0.41580  1.0000
  C   C20       1.0  0.31990  0.90680  0.58420  1.0000
  H   H25       1.0  0.70250  0.03220  0.39400  1.0000
  H   H26       1.0  0.29750  0.96780  0.60600  1.0000
  H   H27       1.0  0.69910  0.12920  0.36290  1.0000
  H   H28       1.0  0.30090  0.87080  0.63710  1.0000
  C   C21       1.0  0.74830  0.11040  0.47160  1.0000
  C   C22       1.0  0.25170  0.88960  0.52840  1.0000
  H   H29       1.0  0.72630  0.07600  0.52570  1.0000
  H   H30       1.0  0.27370  0.92400  0.47430  1.0000
  H   H31       1.0  0.72690  0.17180  0.49190  1.0000
  H   H32       1.0  0.27310  0.82820  0.50810  1.0000
  C   C23       1.0  0.87870  0.08900  0.42150  1.0000
  C   C24       1.0  0.12130  0.91100  0.57850  1.0000
  H   H33       1.0  0.90040  0.11960  0.36480  1.0000
  H   H34       1.0  0.09960  0.88040  0.63520  1.0000
  H   H35       1.0  0.90140  0.02650  0.40590  1.0000
  H   H36       1.0  0.09860  0.97350  0.59410  1.0000
  C   C25       1.0  0.94530  0.11410  0.47690  1.0000
  C   C26       1.0  0.05470  0.88590  0.52310  1.0000
  H   H37       1.0  0.91350  0.17440  0.49980  1.0000
  H   H38       1.0  0.08650  0.82560  0.50020  1.0000
  H   H39       1.0  0.93070  0.07770  0.52950  1.0000
  H   H40       1.0  0.06930  0.92230  0.47050  1.0000
  C   C27       1.0  0.07480  0.10590  0.42760  1.0000
  C   C28       1.0  0.92520  0.89410  0.57240  1.0000
