data_image0
_chemical_formula_structural       Cm4O40C24H12C4H12C4H12C4H12C4H12
_chemical_formula_sum              "Cm4 O40 C40 H60"
_cell_length_a       6.7801
_cell_length_b       15.0056
_cell_length_c       20.489
_cell_angle_alpha    90
_cell_angle_beta     97.24
_cell_angle_gamma    90

_space_group_name_H-M_alt    "P 1"
_space_group_IT_number       1

loop_
  _space_group_symop_operation_xyz
  'x, y, z'

loop_
  _atom_site_type_symbol
  _atom_site_label
  _atom_site_symmetry_multiplicity
  _atom_site_fract_x
  _atom_site_fract_y
  _atom_site_fract_z
  _atom_site_occupancy
  Cm  Cm1       1.0  0.53075  0.59590  0.28222  1.0000
  Cm  Cm2       1.0  0.96925  0.09590  0.21778  1.0000
  Cm  Cm3       1.0  0.46925  0.40410  0.71778  1.0000
  Cm  Cm4       1.0  0.03075  0.90410  0.78222  1.0000
  O   O1        1.0  0.40490  0.46790  0.34824  1.0000
  O   O2        1.0  0.09510  0.96790  0.15176  1.0000
  O   O3        1.0  0.59510  0.53210  0.65176  1.0000
  O   O4        1.0  0.90490  0.03210  0.84824  1.0000
  O   O5        1.0  0.41760  0.79190  0.11635  1.0000
  O   O6        1.0  0.08240  0.29190  0.38365  1.0000
  O   O7        1.0  0.58240  0.20810  0.88365  1.0000
  O   O8        1.0  0.91760  0.70810  0.61635  1.0000
  O   O9        1.0  0.49960  0.75260  0.32807  1.0000
  O   O10       1.0  0.00040  0.25260  0.17193  1.0000
  O   O11       1.0  0.50040  0.24740  0.67193  1.0000
  O   O12       1.0  0.99960  0.74740  0.82807  1.0000
  O   O13       1.0  0.87020  0.64320  0.29699  1.0000
  O   O14       1.0  0.62980  0.14320  0.20301  1.0000
  O   O15       1.0  0.12980  0.35680  0.70301  1.0000
  O   O16       1.0  0.37020  0.85680  0.79699  1.0000
  O   O17       1.0  0.72590  0.47590  0.35073  1.0000
  O   O18       1.0  0.77410  0.97590  0.14927  1.0000
  O   O19       1.0  0.27410  0.52410  0.64927  1.0000
  O   O20       1.0  0.22590  0.02410  0.85073  1.0000
  O   O21       1.0  0.18100  0.61920  0.28563  1.0000
  O   O22       1.0  0.31900  0.11920  0.21437  1.0000
  O   O23       1.0  0.81900  0.38080  0.71437  1.0000
  O   O24       1.0  0.68100  0.88080  0.78563  1.0000
  O   O25       1.0  0.69150  0.49400  0.20560  1.0000
  O   O26       1.0  0.80850  0.99400  0.29440  1.0000
  O   O27       1.0  0.30850  0.50600  0.79440  1.0000
  O   O28       1.0  0.19150  0.00600  0.70560  1.0000
  O   O29       1.0  0.53870  0.64740  0.40152  1.0000
  O   O30       1.0  0.96130  0.14740  0.09848  1.0000
  O   O31       1.0  0.46130  0.35260  0.59848  1.0000
  O   O32       1.0  0.03870  0.85260  0.90152  1.0000
  O   O33       1.0  0.49610  0.68560  0.18760  1.0000
  O   O34       1.0  0.00390  0.18560  0.31240  1.0000
  O   O35       1.0  0.50390  0.31440  0.81240  1.0000
  O   O36       1.0  0.99610  0.81440  0.68760  1.0000
  O   O37       1.0  0.36880  0.48260  0.20167  1.0000
  O   O38       1.0  0.13120  0.98260  0.29833  1.0000
  O   O39       1.0  0.63120  0.51740  0.79833  1.0000
  O   O40       1.0  0.86880  0.01740  0.70167  1.0000
  C   C1        1.0  0.57530  0.44330  0.37142  1.0000
  C   C2        1.0  0.92470  0.94330  0.12858  1.0000
  C   C3        1.0  0.42470  0.55670  0.62858  1.0000
  C   C4        1.0  0.07530  0.05670  0.87142  1.0000
  C   C5        1.0  0.02110  0.65880  0.27036  1.0000
  C   C6        1.0  0.47890  0.15880  0.22964  1.0000
  C   C7        1.0  0.97890  0.34120  0.72964  1.0000
  C   C8        1.0  0.52110  0.84120  0.77036  1.0000
  C   C9        1.0  0.46790  0.71400  0.12980  1.0000
  C   C10       1.0  0.03210  0.21400  0.37020  1.0000
  C   C11       1.0  0.53210  0.28600  0.87020  1.0000
  C   C12       1.0  0.96790  0.78600  0.62980  1.0000
  C   C13       1.0  0.51280  0.72880  0.38630  1.0000
  C   C14       1.0  0.98720  0.22880  0.11370  1.0000
  C   C15       1.0  0.48720  0.27120  0.61370  1.0000
  C   C16       1.0  0.01280  0.77120  0.88630  1.0000
  C   C17       1.0  0.52910  0.45890  0.18200  1.0000
  C   C18       1.0  0.97090  0.95890  0.31800  1.0000
  C   C19       1.0  0.47090  0.54110  0.81800  1.0000
  C   C20       1.0  0.02910  0.04110  0.68200  1.0000
  C   C21       1.0  0.59990  0.37390  0.42440  1.0000
  C   C22       1.0  0.90010  0.87390  0.07560  1.0000
  C   C23       1.0  0.40010  0.62610  0.57560  1.0000
  C   C24       1.0  0.09990  0.12610  0.92440  1.0000
  H   H1        1.0  0.73162  0.34939  0.42761  1.0000
  H   H2        1.0  0.76838  0.84939  0.07239  1.0000
  H   H3        1.0  0.26838  0.65061  0.57239  1.0000
  H   H4        1.0  0.23162  0.15061  0.92761  1.0000
  H   H5        1.0  0.50420  0.32726  0.41390  1.0000
  H   H6        1.0  0.99580  0.82726  0.08610  1.0000
  H   H7        1.0  0.49580  0.67274  0.58610  1.0000
  H   H8        1.0  0.00420  0.17274  0.91390  1.0000
  H   H9        1.0  0.57980  0.40049  0.46565  1.0000
  H   H10       1.0  0.92020  0.90049  0.03435  1.0000
  H   H11       1.0  0.42020  0.59951  0.53435  1.0000
  H   H12       1.0  0.07980  0.09951  0.96565  1.0000
  C   C25       1.0  0.49260  0.79420  0.43950  1.0000
  C   C26       1.0  0.00740  0.29420  0.06050  1.0000
  C   C27       1.0  0.50740  0.20580  0.56050  1.0000
  C   C28       1.0  0.99260  0.70580  0.93950  1.0000
  H   H13       1.0  0.46254  0.85191  0.42054  1.0000
  H   H14       1.0  0.03746  0.35191  0.07946  1.0000
  H   H15       1.0  0.53746  0.14809  0.57946  1.0000
  H   H16       1.0  0.96254  0.64809  0.92054  1.0000
  H   H17       1.0  0.61496  0.79710  0.46861  1.0000
  H   H18       1.0  0.88504  0.29710  0.03139  1.0000
  H   H19       1.0  0.38504  0.20290  0.53139  1.0000
  H   H20       1.0  0.11496  0.70290  0.96861  1.0000
  H   H21       1.0  0.38716  0.77591  0.46370  1.0000
  H   H22       1.0  0.11284  0.27591  0.03630  1.0000
  H   H23       1.0  0.61284  0.22409  0.53630  1.0000
  H   H24       1.0  0.88716  0.72409  0.96370  1.0000
  C   C29       1.0  0.52900  0.38970  0.12910  1.0000
  C   C30       1.0  0.97100  0.88970  0.37090  1.0000
  C   C31       1.0  0.47100  0.61030  0.87090  1.0000
  C   C32       1.0  0.02900  0.11030  0.62910  1.0000
  H   H25       1.0  0.51612  0.41826  0.08682  1.0000
  H   H26       1.0  0.98388  0.91826  0.41318  1.0000
  H   H27       1.0  0.48388  0.58174  0.91318  1.0000
  H   H28       1.0  0.01612  0.08174  0.58682  1.0000
  H   H29       1.0  0.41948  0.34962  0.13097  1.0000
  H   H30       1.0  0.08052  0.84962  0.36903  1.0000
  H   H31       1.0  0.58052  0.65038  0.86903  1.0000
  H   H32       1.0  0.91948  0.15038  0.63097  1.0000
  H   H33       1.0  0.65148  0.35684  0.13555  1.0000
  H   H34       1.0  0.84852  0.85684  0.36445  1.0000
  H   H35       1.0  0.34852  0.64316  0.86445  1.0000
  H   H36       1.0  0.15148  0.14316  0.63555  1.0000
  C   C33       1.0  0.00900  0.73110  0.22040  1.0000
  C   C34       1.0  0.49100  0.23110  0.27960  1.0000
  C   C35       1.0  0.99100  0.26890  0.77960  1.0000
  C   C36       1.0  0.50900  0.76890  0.72040  1.0000
  H   H37       1.0  0.87995  0.73048  0.19498  1.0000
  H   H38       1.0  0.62005  0.23048  0.30502  1.0000
  H   H39       1.0  0.12005  0.26952  0.80502  1.0000
  H   H40       1.0  0.37995  0.76952  0.69498  1.0000
  H   H41       1.0  0.10898  0.72193  0.19179  1.0000
  H   H42       1.0  0.39102  0.22193  0.30821  1.0000
  H   H43       1.0  0.89102  0.27807  0.80821  1.0000
  H   H44       1.0  0.60898  0.77807  0.69179  1.0000
  H   H45       1.0  0.03026  0.78762  0.24210  1.0000
  H   H46       1.0  0.46974  0.28762  0.25790  1.0000
  H   H47       1.0  0.96974  0.21238  0.75790  1.0000
  H   H48       1.0  0.53026  0.71238  0.74210  1.0000
  C   C37       1.0  0.50060  0.65300  0.07540  1.0000
  C   C38       1.0  0.99940  0.15300  0.42460  1.0000
  C   C39       1.0  0.49940  0.34700  0.92460  1.0000
  C   C40       1.0  0.00060  0.84700  0.57540  1.0000
  H   H49       1.0  0.38201  0.61908  0.06270  1.0000
  H   H50       1.0  0.11799  0.11908  0.43730  1.0000
  H   H51       1.0  0.61799  0.38092  0.93730  1.0000
  H   H52       1.0  0.88201  0.88092  0.56270  1.0000
  H   H53       1.0  0.60842  0.61335  0.08982  1.0000
  H   H54       1.0  0.89158  0.11335  0.41018  1.0000
  H   H55       1.0  0.39158  0.38665  0.91018  1.0000
  H   H56       1.0  0.10842  0.88665  0.58982  1.0000
  H   H57       1.0  0.53258  0.68715  0.03855  1.0000
  H   H58       1.0  0.96742  0.18715  0.46145  1.0000
  H   H59       1.0  0.46742  0.31285  0.96145  1.0000
  H   H60       1.0  0.03258  0.81285  0.53855  1.0000
