data_image0
_chemical_formula_structural       In4O44C4O4C8H4C12H4C4H4C8H4C12H4C20H4C8H4C4H4C4H4C12H4C20H4C4H4C4H4C12H4C4H12C8H4C4H4C4H4C8H4C4H12C4H12C4H12
_chemical_formula_sum              "In4 O48 C176 H120"
_cell_length_a       19.0215
_cell_length_b       28.072
_cell_length_c       15.9886
_cell_angle_alpha    90
_cell_angle_beta     112.31
_cell_angle_gamma    90

_space_group_name_H-M_alt    "P 1"
_space_group_IT_number       1

loop_
  _space_group_symop_operation_xyz
  'x, y, z'

loop_
  _atom_site_type_symbol
  _atom_site_label
  _atom_site_symmetry_multiplicity
  _atom_site_fract_x
  _atom_site_fract_y
  _atom_site_fract_z
  _atom_site_occupancy
  In  In1       1.0  0.74926  0.70688  0.86745  1.0000
  In  In2       1.0  0.25074  0.20688  0.63255  1.0000
  In  In3       1.0  0.25074  0.29312  0.13255  1.0000
  In  In4       1.0  0.74926  0.79312  0.36745  1.0000
  O   O1        1.0  0.81334  0.64590  0.82162  1.0000
  O   O2        1.0  0.18666  0.14590  0.67838  1.0000
  O   O3        1.0  0.18666  0.35410  0.17838  1.0000
  O   O4        1.0  0.81334  0.85410  0.32162  1.0000
  O   O5        1.0  0.80706  0.72030  0.77696  1.0000
  O   O6        1.0  0.19294  0.22030  0.72304  1.0000
  O   O7        1.0  0.19294  0.27970  0.22304  1.0000
  O   O8        1.0  0.80706  0.77970  0.27696  1.0000
  O   O9        1.0  0.11995  0.50094  0.53249  1.0000
  O   O10       1.0  0.88005  0.00094  0.96751  1.0000
  O   O11       1.0  0.88005  0.49906  0.46751  1.0000
  O   O12       1.0  0.11995  0.99906  0.03249  1.0000
  O   O13       1.0  0.87446  0.70368  0.98812  1.0000
  O   O14       1.0  0.12554  0.20368  0.51188  1.0000
  O   O15       1.0  0.12554  0.29632  0.01188  1.0000
  O   O16       1.0  0.87446  0.79632  0.48812  1.0000
  O   O17       1.0  0.10676  0.59577  0.38316  1.0000
  O   O18       1.0  0.89324  0.09577  0.11684  1.0000
  O   O19       1.0  0.89324  0.40423  0.61684  1.0000
  O   O20       1.0  0.10676  0.90423  0.88316  1.0000
  O   O21       1.0  0.10612  0.60151  0.67919  1.0000
  O   O22       1.0  0.89388  0.10151  0.82081  1.0000
  O   O23       1.0  0.89388  0.39849  0.32081  1.0000
  O   O24       1.0  0.10612  0.89849  0.17919  1.0000
  O   O25       1.0  0.77171  0.66941  0.99207  1.0000
  O   O26       1.0  0.22829  0.16941  0.50793  1.0000
  O   O27       1.0  0.22829  0.33059  0.00793  1.0000
  O   O28       1.0  0.77171  0.83059  0.49207  1.0000
  O   O29       1.0  0.24169  0.65230  0.60113  1.0000
  O   O30       1.0  0.75831  0.15230  0.89887  1.0000
  O   O31       1.0  0.75831  0.34770  0.39887  1.0000
  O   O32       1.0  0.24169  0.84770  0.10113  1.0000
  O   O33       1.0  0.31869  0.28108  0.71929  1.0000
  O   O34       1.0  0.68131  0.78108  0.78071  1.0000
  O   O35       1.0  0.68131  0.71892  0.28071  1.0000
  O   O36       1.0  0.31869  0.21892  0.21929  1.0000
  O   O37       1.0  0.65443  0.67055  0.77220  1.0000
  O   O38       1.0  0.34557  0.17055  0.72780  1.0000
  O   O39       1.0  0.34557  0.32945  0.22780  1.0000
  O   O40       1.0  0.65443  0.82945  0.27220  1.0000
  O   O41       1.0  0.24110  0.27572  0.57567  1.0000
  O   O42       1.0  0.75890  0.77572  0.92433  1.0000
  O   O43       1.0  0.75890  0.72428  0.42433  1.0000
  O   O44       1.0  0.24110  0.22428  0.07567  1.0000
  C   C1        1.0  0.95866  0.64636  0.61660  1.0000
  C   C2        1.0  0.04134  0.14636  0.88340  1.0000
  C   C3        1.0  0.04134  0.35364  0.38340  1.0000
  C   C4        1.0  0.95866  0.85364  0.11660  1.0000
  O   O45       1.0  0.62009  0.70440  0.87180  1.0000
  O   O46       1.0  0.37991  0.20440  0.62820  1.0000
  O   O47       1.0  0.37991  0.29560  0.12820  1.0000
  O   O48       1.0  0.62009  0.79560  0.37180  1.0000
  C   C5        1.0  0.87485  0.66638  0.72159  1.0000
  C   C6        1.0  0.12515  0.16638  0.77841  1.0000
  C   C7        1.0  0.12515  0.33362  0.27841  1.0000
  C   C8        1.0  0.87485  0.83362  0.22159  1.0000
  C   C9        1.0  0.90398  0.62149  0.72258  1.0000
  C   C10       1.0  0.09602  0.12149  0.77742  1.0000
  C   C11       1.0  0.09602  0.37851  0.27742  1.0000
  C   C12       1.0  0.90398  0.87851  0.22258  1.0000
  H   H1        1.0  0.89504  0.59777  0.75795  1.0000
  H   H2        1.0  0.10496  0.09777  0.74205  1.0000
  H   H3        1.0  0.10496  0.40223  0.24205  1.0000
  H   H4        1.0  0.89504  0.90223  0.25795  1.0000
  C   C13       1.0  0.99947  0.63453  0.55618  1.0000
  C   C14       1.0  0.00053  0.13453  0.94382  1.0000
  C   C15       1.0  0.00053  0.36547  0.44382  1.0000
  C   C16       1.0  0.99947  0.86547  0.05618  1.0000
  C   C17       1.0  0.82969  0.67771  0.77678  1.0000
  C   C18       1.0  0.17031  0.17771  0.72322  1.0000
  C   C19       1.0  0.17031  0.32229  0.22322  1.0000
  C   C20       1.0  0.82969  0.82229  0.27678  1.0000
  C   C21       1.0  0.88264  0.63629  0.26590  1.0000
  C   C22       1.0  0.11736  0.13629  0.23410  1.0000
  C   C23       1.0  0.11736  0.36371  0.73410  1.0000
  C   C24       1.0  0.88264  0.86371  0.76590  1.0000
  H   H5        1.0  0.85625  0.62335  0.29897  1.0000
  H   H6        1.0  0.14375  0.12335  0.20103  1.0000
  H   H7        1.0  0.14375  0.37665  0.70103  1.0000
  H   H8        1.0  0.85625  0.87665  0.79897  1.0000
  C   C25       1.0  0.92814  0.69153  0.61472  1.0000
  C   C26       1.0  0.07186  0.19153  0.88528  1.0000
  C   C27       1.0  0.07186  0.30847  0.38528  1.0000
  C   C28       1.0  0.92814  0.80847  0.11472  1.0000
  H   H9        1.0  0.93538  0.71487  0.57749  1.0000
  H   H10       1.0  0.06462  0.21487  0.92251  1.0000
  H   H11       1.0  0.06462  0.28513  0.42251  1.0000
  H   H12       1.0  0.93538  0.78513  0.07749  1.0000
  C   C29       1.0  0.10590  0.59993  0.53075  1.0000
  C   C30       1.0  0.89410  0.09993  0.96925  1.0000
  C   C31       1.0  0.89410  0.40007  0.46925  1.0000
  C   C32       1.0  0.10590  0.90007  0.03075  1.0000
  C   C33       1.0  0.94661  0.61136  0.67118  1.0000
  C   C34       1.0  0.05339  0.11136  0.82882  1.0000
  C   C35       1.0  0.05339  0.38864  0.32882  1.0000
  C   C36       1.0  0.94661  0.88864  0.17118  1.0000
  H   H13       1.0  0.96716  0.58112  0.67320  1.0000
  H   H14       1.0  0.03284  0.08112  0.82680  1.0000
  H   H15       1.0  0.03284  0.41888  0.32680  1.0000
  H   H16       1.0  0.96716  0.91888  0.17320  1.0000
  C   C37       1.0  0.07001  0.61276  0.58876  1.0000
  C   C38       1.0  0.92999  0.11276  0.91124  1.0000
  C   C39       1.0  0.92999  0.38724  0.41124  1.0000
  C   C40       1.0  0.07001  0.88724  0.08876  1.0000
  C   C41       1.0  0.88282  0.66702  0.12614  1.0000
  C   C42       1.0  0.11718  0.16702  0.37386  1.0000
  C   C43       1.0  0.11718  0.33298  0.87386  1.0000
  C   C44       1.0  0.88282  0.83298  0.62614  1.0000
  C   C45       1.0  0.23360  0.37308  0.55360  1.0000
  C   C46       1.0  0.76640  0.87308  0.94640  1.0000
  C   C47       1.0  0.76640  0.62692  0.44640  1.0000
  C   C48       1.0  0.23360  0.12692  0.05360  1.0000
  H   H17       1.0  0.20828  0.35369  0.50411  1.0000
  H   H18       1.0  0.79172  0.85369  0.99589  1.0000
  H   H19       1.0  0.79172  0.64631  0.49589  1.0000
  H   H20       1.0  0.20828  0.14631  0.00411  1.0000
  C   C49       1.0  0.96034  0.64390  0.30722  1.0000
  C   C50       1.0  0.03966  0.14390  0.19278  1.0000
  C   C51       1.0  0.03966  0.35610  0.69278  1.0000
  C   C52       1.0  0.96034  0.85610  0.80722  1.0000
  C   C53       1.0  0.00005  0.63261  0.40487  1.0000
  C   C54       1.0  0.99995  0.13261  0.09513  1.0000
  C   C55       1.0  0.99995  0.36739  0.59513  1.0000
  C   C56       1.0  0.00005  0.86739  0.90487  1.0000
  C   C57       1.0  0.26435  0.45163  0.61730  1.0000
  C   C58       1.0  0.73565  0.95163  0.88270  1.0000
  C   C59       1.0  0.73565  0.54837  0.38270  1.0000
  C   C60       1.0  0.26435  0.04837  0.11730  1.0000
  C   C61       1.0  0.07003  0.60912  0.43779  1.0000
  C   C62       1.0  0.92997  0.10912  0.06221  1.0000
  C   C63       1.0  0.92997  0.39088  0.56221  1.0000
  C   C64       1.0  0.07003  0.89088  0.93779  1.0000
  C   C65       1.0  0.96167  0.67517  0.16773  1.0000
  C   C66       1.0  0.03833  0.17517  0.33227  1.0000
  C   C67       1.0  0.03833  0.32483  0.83227  1.0000
  C   C68       1.0  0.96167  0.82483  0.66773  1.0000
  H   H21       1.0  0.98805  0.68833  0.13484  1.0000
  H   H22       1.0  0.01195  0.18833  0.36516  1.0000
  H   H23       1.0  0.01195  0.31167  0.86516  1.0000
  H   H24       1.0  0.98805  0.81167  0.63484  1.0000
  C   C69       1.0  0.27795  0.35323  0.63490  1.0000
  C   C70       1.0  0.72205  0.85323  0.86510  1.0000
  C   C71       1.0  0.72205  0.64677  0.36510  1.0000
  C   C72       1.0  0.27795  0.14677  0.13490  1.0000
  C   C73       1.0  0.96633  0.64514  0.46469  1.0000
  C   C74       1.0  0.03367  0.14514  0.03531  1.0000
  C   C75       1.0  0.03367  0.35486  0.53531  1.0000
  C   C76       1.0  0.96633  0.85486  0.96469  1.0000
  H   H25       1.0  0.92007  0.66115  0.44291  1.0000
  H   H26       1.0  0.07993  0.16115  0.05709  1.0000
  H   H27       1.0  0.07993  0.33885  0.55709  1.0000
  H   H28       1.0  0.92007  0.83885  0.94291  1.0000
  C   C77       1.0  0.84394  0.64787  0.17532  1.0000
  C   C78       1.0  0.15606  0.14787  0.32468  1.0000
  C   C79       1.0  0.15606  0.35213  0.82468  1.0000
  C   C80       1.0  0.84394  0.85213  0.67532  1.0000
  H   H29       1.0  0.79186  0.64268  0.14801  1.0000
  H   H30       1.0  0.20814  0.14268  0.35199  1.0000
  H   H31       1.0  0.20814  0.35732  0.85199  1.0000
  H   H32       1.0  0.79186  0.85732  0.64801  1.0000
  C   C81       1.0  0.99913  0.66359  0.25680  1.0000
  C   C82       1.0  0.00087  0.16359  0.24320  1.0000
  C   C83       1.0  0.00087  0.33641  0.74320  1.0000
  C   C84       1.0  0.99913  0.83641  0.75680  1.0000
  H   H33       1.0  0.05117  0.66891  0.28424  1.0000
  H   H34       1.0  0.94883  0.16891  0.21576  1.0000
  H   H35       1.0  0.94883  0.33109  0.71576  1.0000
  H   H36       1.0  0.05117  0.83109  0.78424  1.0000
  C   C85       1.0  0.31882  0.58152  0.64330  1.0000
  C   C86       1.0  0.68118  0.08152  0.85670  1.0000
  C   C87       1.0  0.68118  0.41848  0.35670  1.0000
  C   C88       1.0  0.31882  0.91848  0.14330  1.0000
  C   C89       1.0  0.25673  0.50365  0.61010  1.0000
  C   C90       1.0  0.74327  0.00365  0.88990  1.0000
  C   C91       1.0  0.74327  0.49635  0.38990  1.0000
  C   C92       1.0  0.25673  0.99635  0.11010  1.0000
  C   C93       1.0  0.22666  0.42203  0.54550  1.0000
  C   C94       1.0  0.77334  0.92203  0.95450  1.0000
  C   C95       1.0  0.77334  0.57797  0.45450  1.0000
  C   C96       1.0  0.22666  0.07797  0.04550  1.0000
  H   H37       1.0  0.19592  0.43527  0.49038  1.0000
  H   H38       1.0  0.80408  0.93527  0.00962  1.0000
  H   H39       1.0  0.80408  0.56473  0.50962  1.0000
  H   H40       1.0  0.19592  0.06473  0.99038  1.0000
  C   C97       1.0  0.39026  0.60948  0.68200  1.0000
  C   C98       1.0  0.60974  0.10948  0.81800  1.0000
  C   C99       1.0  0.60974  0.39052  0.31800  1.0000
  C   C100      1.0  0.39026  0.89052  0.18200  1.0000
  C   C101      1.0  0.18645  0.52682  0.57088  1.0000
  C   C102      1.0  0.81355  0.02682  0.92912  1.0000
  C   C103      1.0  0.81355  0.47318  0.42912  1.0000
  C   C104      1.0  0.18645  0.97318  0.07088  1.0000
  C   C105      1.0  0.24739  0.60364  0.60300  1.0000
  C   C106      1.0  0.75261  0.10364  0.89700  1.0000
  C   C107      1.0  0.75261  0.39636  0.39700  1.0000
  C   C108      1.0  0.24739  0.89636  0.10300  1.0000
  C   C109      1.0  0.52843  0.65611  0.75910  1.0000
  C   C110      1.0  0.47157  0.15611  0.74090  1.0000
  C   C111      1.0  0.47157  0.34389  0.24090  1.0000
  C   C112      1.0  0.52843  0.84389  0.25910  1.0000
  C   C113      1.0  0.31640  0.38207  0.70990  1.0000
  C   C114      1.0  0.68360  0.88207  0.79010  1.0000
  C   C115      1.0  0.68360  0.61793  0.29010  1.0000
  C   C116      1.0  0.31640  0.11793  0.20990  1.0000
  H   H41       1.0  0.34619  0.36845  0.76505  1.0000
  H   H42       1.0  0.65381  0.86845  0.73495  1.0000
  H   H43       1.0  0.65381  0.63155  0.23495  1.0000
  H   H44       1.0  0.34619  0.13155  0.26505  1.0000
  C   C117      1.0  0.88738  0.70207  0.66731  1.0000
  C   C118      1.0  0.11262  0.20207  0.83269  1.0000
  C   C119      1.0  0.11262  0.29793  0.33269  1.0000
  C   C120      1.0  0.88738  0.79793  0.16731  1.0000
  H   H45       1.0  0.86826  0.73259  0.66693  1.0000
  H   H46       1.0  0.13174  0.23259  0.83307  1.0000
  H   H47       1.0  0.13174  0.26741  0.33307  1.0000
  H   H48       1.0  0.86826  0.76741  0.16693  1.0000
  C   C121      1.0  0.30946  0.43122  0.70100  1.0000
  C   C122      1.0  0.69054  0.93122  0.79900  1.0000
  C   C123      1.0  0.69054  0.56878  0.29900  1.0000
  C   C124      1.0  0.30946  0.06878  0.20100  1.0000
  H   H49       1.0  0.33468  0.45071  0.75032  1.0000
  H   H50       1.0  0.66532  0.95071  0.74968  1.0000
  H   H51       1.0  0.66532  0.54929  0.24968  1.0000
  H   H52       1.0  0.33468  0.04929  0.25032  1.0000
  C   C125      1.0  0.84210  0.68064  0.03040  1.0000
  C   C126      1.0  0.15790  0.18064  0.46960  1.0000
  C   C127      1.0  0.15790  0.31936  0.96960  1.0000
  C   C128      1.0  0.84210  0.81936  0.53040  1.0000
  C   C129      1.0  0.18162  0.57624  0.56821  1.0000
  C   C130      1.0  0.81838  0.07624  0.93179  1.0000
  C   C131      1.0  0.81838  0.42376  0.43179  1.0000
  C   C132      1.0  0.18162  0.92376  0.06821  1.0000
  C   C133      1.0  0.32156  0.53266  0.64510  1.0000
  C   C134      1.0  0.67844  0.03266  0.85490  1.0000
  C   C135      1.0  0.67844  0.46734  0.35490  1.0000
  C   C136      1.0  0.32156  0.96734  0.14510  1.0000
  H   H53       1.0  0.36878  0.51800  0.67093  1.0000
  H   H54       1.0  0.63122  0.01800  0.82907  1.0000
  H   H55       1.0  0.63122  0.48200  0.32907  1.0000
  H   H56       1.0  0.36878  0.98200  0.17093  1.0000
  C   C137      1.0  0.08886  0.48443  0.59440  1.0000
  C   C138      1.0  0.91114  0.98443  0.90560  1.0000
  C   C139      1.0  0.91114  0.51557  0.40560  1.0000
  C   C140      1.0  0.08886  0.01557  0.09440  1.0000
  H   H57       1.0  0.04354  0.46651  0.56266  1.0000
  H   H58       1.0  0.95646  0.96651  0.93734  1.0000
  H   H59       1.0  0.95646  0.53349  0.43734  1.0000
  H   H60       1.0  0.04354  0.03349  0.06266  1.0000
  H   H61       1.0  0.07671  0.51111  0.62400  1.0000
  H   H62       1.0  0.92329  0.01111  0.87600  1.0000
  H   H63       1.0  0.92329  0.48889  0.37600  1.0000
  H   H64       1.0  0.07671  0.98889  0.12400  1.0000
  H   H65       1.0  0.12517  0.46443  0.63863  1.0000
  H   H66       1.0  0.87483  0.96443  0.86137  1.0000
  H   H67       1.0  0.87483  0.53557  0.36137  1.0000
  H   H68       1.0  0.12517  0.03557  0.13863  1.0000
  C   C141      1.0  0.28072  0.30024  0.64570  1.0000
  C   C142      1.0  0.71928  0.80024  0.85430  1.0000
  C   C143      1.0  0.71928  0.69976  0.35430  1.0000
  C   C144      1.0  0.28072  0.19976  0.14570  1.0000
  C   C145      1.0  0.51825  0.62384  0.69160  1.0000
  C   C146      1.0  0.48175  0.12384  0.80840  1.0000
  C   C147      1.0  0.48175  0.37616  0.30840  1.0000
  C   C148      1.0  0.51825  0.87616  0.19160  1.0000
  H   H69       1.0  0.55767  0.61732  0.67239  1.0000
  H   H70       1.0  0.44233  0.11732  0.82761  1.0000
  H   H71       1.0  0.44233  0.38268  0.32761  1.0000
  H   H72       1.0  0.55767  0.88268  0.17239  1.0000
  C   C149      1.0  0.44821  0.60056  0.65130  1.0000
  C   C150      1.0  0.55179  0.10056  0.84870  1.0000
  C   C151      1.0  0.55179  0.39944  0.34870  1.0000
  C   C152      1.0  0.44821  0.89944  0.15130  1.0000
  H   H73       1.0  0.44058  0.57920  0.60416  1.0000
  H   H74       1.0  0.55942  0.07920  0.89584  1.0000
  H   H75       1.0  0.55942  0.42080  0.39584  1.0000
  H   H76       1.0  0.44058  0.92080  0.10416  1.0000
  C   C153      1.0  0.46966  0.66586  0.78920  1.0000
  C   C154      1.0  0.53034  0.16586  0.71080  1.0000
  C   C155      1.0  0.53034  0.33414  0.21080  1.0000
  C   C156      1.0  0.46966  0.83414  0.28920  1.0000
  H   H77       1.0  0.47684  0.68766  0.83553  1.0000
  H   H78       1.0  0.52316  0.18766  0.66447  1.0000
  H   H79       1.0  0.52316  0.31234  0.16447  1.0000
  H   H80       1.0  0.47684  0.81234  0.33553  1.0000
  C   C157      1.0  0.60534  0.67857  0.80250  1.0000
  C   C158      1.0  0.39466  0.17857  0.69750  1.0000
  C   C159      1.0  0.39466  0.32143  0.19750  1.0000
  C   C160      1.0  0.60534  0.82143  0.30250  1.0000
  C   C161      1.0  0.40161  0.64289  0.74950  1.0000
  C   C162      1.0  0.59839  0.14289  0.75050  1.0000
  C   C163      1.0  0.59839  0.35711  0.25050  1.0000
  C   C164      1.0  0.40161  0.85711  0.24950  1.0000
  H   H81       1.0  0.36212  0.64986  0.76838  1.0000
  H   H82       1.0  0.63788  0.14986  0.73162  1.0000
  H   H83       1.0  0.63788  0.35014  0.23162  1.0000
  H   H84       1.0  0.36212  0.85014  0.26838  1.0000
  C   C165      1.0  0.07380  0.55432  0.32820  1.0000
  C   C166      1.0  0.92620  0.05432  0.17180  1.0000
  C   C167      1.0  0.92620  0.44568  0.67180  1.0000
  C   C168      1.0  0.07380  0.94568  0.82820  1.0000
  H   H85       1.0  0.02035  0.55937  0.29592  1.0000
  H   H86       1.0  0.97965  0.05937  0.20408  1.0000
  H   H87       1.0  0.97965  0.44063  0.70408  1.0000
  H   H88       1.0  0.02035  0.94063  0.79592  1.0000
  H   H89       1.0  0.08139  0.52685  0.36638  1.0000
  H   H90       1.0  0.91861  0.02685  0.13362  1.0000
  H   H91       1.0  0.91861  0.47315  0.63362  1.0000
  H   H92       1.0  0.08139  0.97315  0.86638  1.0000
  H   H93       1.0  0.09783  0.54929  0.28587  1.0000
  H   H94       1.0  0.90217  0.04929  0.21413  1.0000
  H   H95       1.0  0.90217  0.45071  0.71413  1.0000
  H   H96       1.0  0.09783  0.95071  0.78587  1.0000
  C   C169      1.0  0.13950  0.64131  0.73630  1.0000
  C   C170      1.0  0.86050  0.14131  0.76370  1.0000
  C   C171      1.0  0.86050  0.35869  0.26370  1.0000
  C   C172      1.0  0.13950  0.85869  0.23630  1.0000
  H   H97       1.0  0.10094  0.66460  0.73055  1.0000
  H   H98       1.0  0.89906  0.16460  0.76945  1.0000
  H   H99       1.0  0.89906  0.33540  0.26945  1.0000
  H   H100      1.0  0.10094  0.83540  0.23055  1.0000
  H   H101      1.0  0.17790  0.65522  0.71876  1.0000
  H   H102      1.0  0.82210  0.15522  0.78124  1.0000
  H   H103      1.0  0.82210  0.34478  0.28124  1.0000
  H   H104      1.0  0.17790  0.84478  0.21876  1.0000
  H   H105      1.0  0.16194  0.63084  0.79800  1.0000
  H   H106      1.0  0.83806  0.13084  0.70200  1.0000
  H   H107      1.0  0.83806  0.36916  0.20200  1.0000
  H   H108      1.0  0.16194  0.86916  0.29800  1.0000
  C   C173      1.0  0.25250  0.67336  0.52730  1.0000
  C   C174      1.0  0.74750  0.17336  0.97270  1.0000
  C   C175      1.0  0.74750  0.32664  0.47270  1.0000
  C   C176      1.0  0.25250  0.82664  0.02730  1.0000
  H   H109      1.0  0.21449  0.66196  0.47203  1.0000
  H   H110      1.0  0.78551  0.16196  0.02797  1.0000
  H   H111      1.0  0.78551  0.33804  0.52797  1.0000
  H   H112      1.0  0.21449  0.83804  0.97203  1.0000
  H   H113      1.0  0.30203  0.66517  0.52884  1.0000
  H   H114      1.0  0.69797  0.16517  0.97116  1.0000
  H   H115      1.0  0.69797  0.33483  0.47116  1.0000
  H   H116      1.0  0.30203  0.83483  0.02884  1.0000
  H   H117      1.0  0.24856  0.70734  0.53052  1.0000
  H   H118      1.0  0.75144  0.20734  0.96948  1.0000
  H   H119      1.0  0.75144  0.29266  0.46948  1.0000
  H   H120      1.0  0.24856  0.79266  0.03052  1.0000
