data_image0
_chemical_formula_structural       Eu4O32N8C12H4C12H8C16H4C4H4C12H4
_chemical_formula_sum              "Eu4 O32 N8 C56 H24"
_cell_length_a       9.1791
_cell_length_b       10.1636
_cell_length_c       21.739
_cell_angle_alpha    90
_cell_angle_beta     99.829
_cell_angle_gamma    90

_space_group_name_H-M_alt    "P 1"
_space_group_IT_number       1

loop_
  _space_group_symop_operation_xyz
  'x, y, z'

loop_
  _atom_site_type_symbol
  _atom_site_label
  _atom_site_symmetry_multiplicity
  _atom_site_fract_x
  _atom_site_fract_y
  _atom_site_fract_z
  _atom_site_occupancy
  Eu  Eu1       1.0  0.11703  0.87334  0.56009  1.0000
  Eu  Eu2       1.0  0.88297  0.37334  0.93991  1.0000
  Eu  Eu3       1.0  0.88297  0.12666  0.43991  1.0000
  Eu  Eu4       1.0  0.11703  0.62666  0.06009  1.0000
  O   O1        1.0  0.16790  0.85810  0.45642  1.0000
  O   O2        1.0  0.83210  0.35810  0.04358  1.0000
  O   O3        1.0  0.83210  0.14190  0.54358  1.0000
  O   O4        1.0  0.16790  0.64190  0.95642  1.0000
  O   O5        1.0  0.89070  0.36220  0.46273  1.0000
  O   O6        1.0  0.10930  0.86220  0.03727  1.0000
  O   O7        1.0  0.10930  0.63780  0.53727  1.0000
  O   O8        1.0  0.89070  0.13780  0.96273  1.0000
  O   O9        1.0  0.05590  0.74600  0.15003  1.0000
  O   O10       1.0  0.94410  0.24600  0.34997  1.0000
  O   O11       1.0  0.94410  0.25400  0.84997  1.0000
  O   O12       1.0  0.05590  0.75400  0.65003  1.0000
  O   O13       1.0  0.69720  0.96340  0.44042  1.0000
  O   O14       1.0  0.30280  0.46340  0.05958  1.0000
  O   O15       1.0  0.30280  0.03660  0.55958  1.0000
  O   O16       1.0  0.69720  0.53660  0.94042  1.0000
  O   O17       1.0  0.23930  0.60760  0.17320  1.0000
  O   O18       1.0  0.76070  0.10760  0.32680  1.0000
  O   O19       1.0  0.76070  0.39240  0.82680  1.0000
  O   O20       1.0  0.23930  0.89240  0.67320  1.0000
  O   O21       1.0  0.67720  0.27200  0.42386  1.0000
  O   O22       1.0  0.32280  0.77200  0.07614  1.0000
  O   O23       1.0  0.32280  0.72800  0.57614  1.0000
  O   O24       1.0  0.67720  0.22800  0.92386  1.0000
  O   O25       1.0  0.00470  0.96770  0.38741  1.0000
  O   O26       1.0  0.99530  0.46770  0.11259  1.0000
  O   O27       1.0  0.99530  0.03230  0.61259  1.0000
  O   O28       1.0  0.00470  0.53230  0.88741  1.0000
  O   O29       1.0  0.88630  0.86800  0.49955  1.0000
  O   O30       1.0  0.11370  0.36800  0.00045  1.0000
  O   O31       1.0  0.11370  0.13200  0.50045  1.0000
  O   O32       1.0  0.88630  0.63200  0.99955  1.0000
  N   N1        1.0  0.21940  0.69050  0.35453  1.0000
  N   N2        1.0  0.78060  0.19050  0.14547  1.0000
  N   N3        1.0  0.78060  0.30950  0.64547  1.0000
  N   N4        1.0  0.21940  0.80950  0.85453  1.0000
  N   N5        1.0  0.23340  0.63990  0.29874  1.0000
  N   N6        1.0  0.76660  0.13990  0.20126  1.0000
  N   N7        1.0  0.76660  0.36010  0.70126  1.0000
  N   N8        1.0  0.23340  0.86010  0.79874  1.0000
  C   C1        1.0  0.15180  0.68860  0.18964  1.0000
  C   C2        1.0  0.84820  0.18860  0.31036  1.0000
  C   C3        1.0  0.84820  0.31140  0.81036  1.0000
  C   C4        1.0  0.15180  0.81140  0.68964  1.0000
  C   C5        1.0  0.75670  0.86330  0.46709  1.0000
  C   C6        1.0  0.24330  0.36330  0.03291  1.0000
  C   C7        1.0  0.24330  0.13670  0.53291  1.0000
  C   C8        1.0  0.75670  0.63670  0.96709  1.0000
  C   C9        1.0  0.75410  0.61730  0.46008  1.0000
  C   C10       1.0  0.24590  0.11730  0.03992  1.0000
  C   C11       1.0  0.24590  0.38270  0.53992  1.0000
  C   C12       1.0  0.75410  0.88270  0.96008  1.0000
  H   H1        1.0  0.85613  0.61623  0.47264  1.0000
  H   H2        1.0  0.14387  0.11623  0.02736  1.0000
  H   H3        1.0  0.14387  0.38377  0.52736  1.0000
  H   H4        1.0  0.85613  0.88377  0.97264  1.0000
  C   C13       1.0  0.13960  0.80360  0.34898  1.0000
  C   C14       1.0  0.86040  0.30360  0.15102  1.0000
  C   C15       1.0  0.86040  0.19640  0.65102  1.0000
  C   C16       1.0  0.13960  0.69640  0.84898  1.0000
  C   C17       1.0  0.75470  0.37250  0.44298  1.0000
  C   C18       1.0  0.24530  0.87250  0.05702  1.0000
  C   C19       1.0  0.24530  0.62750  0.55702  1.0000
  C   C20       1.0  0.75470  0.12750  0.94298  1.0000
  C   C21       1.0  0.27700  0.61400  0.41014  1.0000
  C   C22       1.0  0.72300  0.11400  0.08986  1.0000
  C   C23       1.0  0.72300  0.38600  0.58986  1.0000
  C   C24       1.0  0.27700  0.88600  0.91014  1.0000
  H   H5        1.0  0.24603  0.52309  0.40349  1.0000
  H   H6        1.0  0.75397  0.02309  0.09651  1.0000
  H   H7        1.0  0.75397  0.47691  0.59651  1.0000
  H   H8        1.0  0.24603  0.97691  0.90349  1.0000
  H   H9        1.0  0.23556  0.64748  0.44520  1.0000
  H   H10       1.0  0.76444  0.14748  0.05480  1.0000
  H   H11       1.0  0.76444  0.35252  0.55480  1.0000
  H   H12       1.0  0.23556  0.85252  0.94520  1.0000
  C   C25       1.0  0.10150  0.88140  0.40267  1.0000
  C   C26       1.0  0.89850  0.38140  0.09733  1.0000
  C   C27       1.0  0.89850  0.11860  0.59733  1.0000
  C   C28       1.0  0.10150  0.61860  0.90267  1.0000
  C   C29       1.0  0.15910  0.72060  0.25646  1.0000
  C   C30       1.0  0.84090  0.22060  0.24354  1.0000
  C   C31       1.0  0.84090  0.27940  0.74354  1.0000
  C   C32       1.0  0.15910  0.77940  0.75646  1.0000
  C   C33       1.0  0.67740  0.50130  0.44329  1.0000
  C   C34       1.0  0.32260  0.00130  0.05671  1.0000
  C   C35       1.0  0.32260  0.49870  0.55671  1.0000
  C   C36       1.0  0.67740  0.99870  0.94329  1.0000
  C   C37       1.0  0.52090  0.73440  0.44083  1.0000
  C   C38       1.0  0.47910  0.23440  0.05917  1.0000
  C   C39       1.0  0.47910  0.26560  0.55917  1.0000
  C   C40       1.0  0.52090  0.76560  0.94083  1.0000
  H   H13       1.0  0.46898  0.81322  0.43973  1.0000
  H   H14       1.0  0.53102  0.31322  0.06027  1.0000
  H   H15       1.0  0.53102  0.18678  0.56027  1.0000
  H   H16       1.0  0.46898  0.68678  0.93973  1.0000
  C   C41       1.0  0.52300  0.50250  0.42636  1.0000
  C   C42       1.0  0.47700  0.00250  0.07364  1.0000
  C   C43       1.0  0.47700  0.49750  0.57364  1.0000
  C   C44       1.0  0.52300  0.99750  0.92636  1.0000
  H   H17       1.0  0.47250  0.42438  0.41536  1.0000
  H   H18       1.0  0.52750  0.92438  0.08464  1.0000
  H   H19       1.0  0.52750  0.57562  0.58464  1.0000
  H   H20       1.0  0.47250  0.07562  0.91536  1.0000
  C   C45       1.0  0.44540  0.61950  0.42593  1.0000
  C   C46       1.0  0.55460  0.11950  0.07407  1.0000
  C   C47       1.0  0.55460  0.38050  0.57407  1.0000
  C   C48       1.0  0.44540  0.88050  0.92593  1.0000
  C   C49       1.0  0.67620  0.73510  0.45784  1.0000
  C   C50       1.0  0.32380  0.23510  0.04216  1.0000
  C   C51       1.0  0.32380  0.26490  0.54216  1.0000
  C   C52       1.0  0.67620  0.76490  0.95784  1.0000
  C   C53       1.0  0.09800  0.82460  0.28587  1.0000
  C   C54       1.0  0.90200  0.32460  0.21413  1.0000
  C   C55       1.0  0.90200  0.17540  0.71413  1.0000
  C   C56       1.0  0.09800  0.67540  0.78587  1.0000
  H   H21       1.0  0.04106  0.89364  0.26669  1.0000
  H   H22       1.0  0.95894  0.39364  0.23331  1.0000
  H   H23       1.0  0.95894  0.10636  0.73331  1.0000
  H   H24       1.0  0.04106  0.60636  0.76669  1.0000
