data_image0
_chemical_formula_structural       Gd4O28C4O4C12H4C8H4C12H4N4H8N4C20H4
_chemical_formula_sum              "Gd4 O32 C56 H24 N8"
_cell_length_a       9.2303
_cell_length_b       10.153
_cell_length_c       21.8214
_cell_angle_alpha    90
_cell_angle_beta     100.353
_cell_angle_gamma    90

_space_group_name_H-M_alt    "P 1"
_space_group_IT_number       1

loop_
  _space_group_symop_operation_xyz
  'x, y, z'

loop_
  _atom_site_type_symbol
  _atom_site_label
  _atom_site_symmetry_multiplicity
  _atom_site_fract_x
  _atom_site_fract_y
  _atom_site_fract_z
  _atom_site_occupancy
  Gd  Gd1       1.0  0.11662  0.12570  0.55948  1.0000
  Gd  Gd2       1.0  0.88338  0.62570  0.94052  1.0000
  Gd  Gd3       1.0  0.88338  0.87430  0.44052  1.0000
  Gd  Gd4       1.0  0.11662  0.37430  0.05948  1.0000
  O   O1        1.0  0.88510  0.12610  0.49457  1.0000
  O   O2        1.0  0.11490  0.62610  0.00543  1.0000
  O   O3        1.0  0.11490  0.87390  0.50543  1.0000
  O   O4        1.0  0.88510  0.37390  0.99457  1.0000
  O   O5        1.0  0.23950  0.39280  0.17329  1.0000
  O   O6        1.0  0.76050  0.89280  0.32671  1.0000
  O   O7        1.0  0.76050  0.60720  0.82671  1.0000
  O   O8        1.0  0.23950  0.10720  0.67329  1.0000
  O   O9        1.0  0.17090  0.14110  0.45562  1.0000
  O   O10       1.0  0.82910  0.64110  0.04438  1.0000
  O   O11       1.0  0.82910  0.85890  0.54438  1.0000
  O   O12       1.0  0.17090  0.35890  0.95562  1.0000
  O   O13       1.0  0.88950  0.63610  0.46506  1.0000
  O   O14       1.0  0.11050  0.13610  0.03494  1.0000
  O   O15       1.0  0.11050  0.36390  0.53494  1.0000
  O   O16       1.0  0.88950  0.86390  0.96506  1.0000
  O   O17       1.0  0.67800  0.72620  0.42278  1.0000
  O   O18       1.0  0.32200  0.22620  0.07722  1.0000
  O   O19       1.0  0.32200  0.27380  0.57722  1.0000
  O   O20       1.0  0.67800  0.77380  0.92278  1.0000
  O   O21       1.0  0.06020  0.24850  0.14952  1.0000
  O   O22       1.0  0.93980  0.74850  0.35048  1.0000
  O   O23       1.0  0.93980  0.75150  0.85048  1.0000
  O   O24       1.0  0.06020  0.25150  0.64952  1.0000
  O   O25       1.0  0.00990  0.02820  0.38613  1.0000
  O   O26       1.0  0.99010  0.52820  0.11387  1.0000
  O   O27       1.0  0.99010  0.97180  0.61387  1.0000
  O   O28       1.0  0.00990  0.47180  0.88613  1.0000
  C   C1        1.0  0.75360  0.13360  0.46541  1.0000
  C   C2        1.0  0.24640  0.63360  0.03459  1.0000
  C   C3        1.0  0.24640  0.86640  0.53459  1.0000
  C   C4        1.0  0.75360  0.36640  0.96541  1.0000
  O   O29       1.0  0.68850  0.03440  0.43826  1.0000
  O   O30       1.0  0.31150  0.53440  0.06174  1.0000
  O   O31       1.0  0.31150  0.96560  0.56174  1.0000
  O   O32       1.0  0.68850  0.46560  0.93826  1.0000
  C   C5        1.0  0.67370  0.26300  0.45723  1.0000
  C   C6        1.0  0.32630  0.76300  0.04277  1.0000
  C   C7        1.0  0.32630  0.73700  0.54277  1.0000
  C   C8        1.0  0.67370  0.23700  0.95723  1.0000
  C   C9        1.0  0.75250  0.38080  0.46046  1.0000
  C   C10       1.0  0.24750  0.88080  0.03954  1.0000
  C   C11       1.0  0.24750  0.61920  0.53954  1.0000
  C   C12       1.0  0.75250  0.11920  0.96046  1.0000
  C   C13       1.0  0.52010  0.26350  0.44088  1.0000
  C   C14       1.0  0.47990  0.76350  0.05912  1.0000
  C   C15       1.0  0.47990  0.73650  0.55912  1.0000
  C   C16       1.0  0.52010  0.23650  0.94088  1.0000
  H   H1        1.0  0.85420  0.38137  0.47339  1.0000
  H   H2        1.0  0.14580  0.88137  0.02661  1.0000
  H   H3        1.0  0.14580  0.61863  0.52661  1.0000
  H   H4        1.0  0.85420  0.11863  0.97339  1.0000
  C   C17       1.0  0.67690  0.49650  0.44415  1.0000
  C   C18       1.0  0.32310  0.99650  0.05585  1.0000
  C   C19       1.0  0.32310  0.50350  0.55585  1.0000
  C   C20       1.0  0.67690  0.00350  0.94415  1.0000
  C   C21       1.0  0.44320  0.38080  0.42613  1.0000
  C   C22       1.0  0.55680  0.88080  0.07387  1.0000
  C   C23       1.0  0.55680  0.61920  0.57387  1.0000
  C   C24       1.0  0.44320  0.11920  0.92613  1.0000
  H   H5        1.0  0.46859  0.18461  0.43985  1.0000
  H   H6        1.0  0.53141  0.68461  0.06015  1.0000
  H   H7        1.0  0.53141  0.81539  0.56015  1.0000
  H   H8        1.0  0.46859  0.31539  0.93985  1.0000
  C   C25       1.0  0.75440  0.62580  0.44408  1.0000
  C   C26       1.0  0.24560  0.12580  0.05592  1.0000
  C   C27       1.0  0.24560  0.37420  0.55592  1.0000
  C   C28       1.0  0.75440  0.87420  0.94408  1.0000
  C   C29       1.0  0.52310  0.49650  0.42707  1.0000
  C   C30       1.0  0.47690  0.99650  0.07293  1.0000
  C   C31       1.0  0.47690  0.50350  0.57293  1.0000
  C   C32       1.0  0.52310  0.00350  0.92707  1.0000
  C   C33       1.0  0.27790  0.38550  0.40961  1.0000
  C   C34       1.0  0.72210  0.88550  0.09039  1.0000
  C   C35       1.0  0.72210  0.61450  0.59039  1.0000
  C   C36       1.0  0.27790  0.11450  0.90961  1.0000
  H   H9        1.0  0.47391  0.57536  0.41620  1.0000
  H   H10       1.0  0.52609  0.07536  0.08380  1.0000
  H   H11       1.0  0.52609  0.42464  0.58380  1.0000
  H   H12       1.0  0.47391  0.92464  0.91620  1.0000
  N   N1        1.0  0.22000  0.30800  0.35379  1.0000
  N   N2        1.0  0.78000  0.80800  0.14621  1.0000
  N   N3        1.0  0.78000  0.69200  0.64621  1.0000
  N   N4        1.0  0.22000  0.19200  0.85379  1.0000
  H   H13       1.0  0.23652  0.35220  0.44440  1.0000
  H   H14       1.0  0.76348  0.85220  0.05560  1.0000
  H   H15       1.0  0.76348  0.64780  0.55560  1.0000
  H   H16       1.0  0.23652  0.14780  0.94440  1.0000
  H   H17       1.0  0.24680  0.47635  0.40268  1.0000
  H   H18       1.0  0.75320  0.97635  0.09732  1.0000
  H   H19       1.0  0.75320  0.52365  0.59732  1.0000
  H   H20       1.0  0.24680  0.02365  0.90268  1.0000
  N   N5        1.0  0.23450  0.35950  0.29831  1.0000
  N   N6        1.0  0.76550  0.85950  0.20169  1.0000
  N   N7        1.0  0.76550  0.64050  0.70169  1.0000
  N   N8        1.0  0.23450  0.14050  0.79831  1.0000
  C   C37       1.0  0.14250  0.19500  0.34838  1.0000
  C   C38       1.0  0.85750  0.69500  0.15162  1.0000
  C   C39       1.0  0.85750  0.80500  0.65162  1.0000
  C   C40       1.0  0.14250  0.30500  0.84838  1.0000
  C   C41       1.0  0.16300  0.27700  0.25660  1.0000
  C   C42       1.0  0.83700  0.77700  0.24340  1.0000
  C   C43       1.0  0.83700  0.72300  0.74340  1.0000
  C   C44       1.0  0.16300  0.22300  0.75660  1.0000
  C   C45       1.0  0.10540  0.11560  0.40133  1.0000
  C   C46       1.0  0.89460  0.61560  0.09867  1.0000
  C   C47       1.0  0.89460  0.88440  0.59867  1.0000
  C   C48       1.0  0.10540  0.38440  0.90133  1.0000
  C   C49       1.0  0.10140  0.17210  0.28497  1.0000
  C   C50       1.0  0.89860  0.67210  0.21503  1.0000
  C   C51       1.0  0.89860  0.82790  0.71503  1.0000
  C   C52       1.0  0.10140  0.32790  0.78497  1.0000
  C   C53       1.0  0.15430  0.30830  0.18960  1.0000
  C   C54       1.0  0.84570  0.80830  0.31040  1.0000
  C   C55       1.0  0.84570  0.69170  0.81040  1.0000
  C   C56       1.0  0.15430  0.19170  0.68960  1.0000
  H   H21       1.0  0.04544  0.10258  0.26558  1.0000
  H   H22       1.0  0.95456  0.60258  0.23442  1.0000
  H   H23       1.0  0.95456  0.89742  0.73442  1.0000
  H   H24       1.0  0.04544  0.39742  0.76558  1.0000
