data_image0
_chemical_formula_structural       U8O64C8H8C4H8C4H8C12H8C4H8C4H8C12H8C4H8C4H8C4
_chemical_formula_sum              "U8 O64 C60 H72"
_cell_length_a       15.193
_cell_length_b       13.0466
_cell_length_c       15.2695
_cell_angle_alpha    90
_cell_angle_beta     104.656
_cell_angle_gamma    90

_space_group_name_H-M_alt    "P 1"
_space_group_IT_number       1

loop_
  _space_group_symop_operation_xyz
  'x, y, z'

loop_
  _atom_site_type_symbol
  _atom_site_label
  _atom_site_symmetry_multiplicity
  _atom_site_fract_x
  _atom_site_fract_y
  _atom_site_fract_z
  _atom_site_occupancy
  U   U1        1.0  0.34443  0.33262  0.27868  1.0000
  U   U2        1.0  0.15557  0.83262  0.22132  1.0000
  U   U3        1.0  0.65557  0.66738  0.72132  1.0000
  U   U4        1.0  0.84443  0.16738  0.77868  1.0000
  U   U5        1.0  0.32807  0.84994  0.76199  1.0000
  U   U6        1.0  0.17193  0.34994  0.73801  1.0000
  U   U7        1.0  0.67193  0.15006  0.23801  1.0000
  U   U8        1.0  0.82807  0.65006  0.26199  1.0000
  O   O1        1.0  0.45890  0.29890  0.32870  1.0000
  O   O2        1.0  0.04110  0.79890  0.17130  1.0000
  O   O3        1.0  0.54110  0.70110  0.67130  1.0000
  O   O4        1.0  0.95890  0.20110  0.82870  1.0000
  O   O5        1.0  0.23090  0.36890  0.22720  1.0000
  O   O6        1.0  0.26910  0.86890  0.27280  1.0000
  O   O7        1.0  0.76910  0.63110  0.77280  1.0000
  O   O8        1.0  0.73090  0.13110  0.72720  1.0000
  O   O9        1.0  0.43230  0.79510  0.82120  1.0000
  O   O10       1.0  0.06770  0.29510  0.67880  1.0000
  O   O11       1.0  0.56770  0.20490  0.17880  1.0000
  O   O12       1.0  0.93230  0.70490  0.32120  1.0000
  O   O13       1.0  0.22340  0.90500  0.70100  1.0000
  O   O14       1.0  0.27660  0.40500  0.79900  1.0000
  O   O15       1.0  0.77660  0.09500  0.29900  1.0000
  O   O16       1.0  0.72340  0.59500  0.20100  1.0000
  O   O17       1.0  0.39530  0.51150  0.27830  1.0000
  O   O18       1.0  0.10470  0.01150  0.22170  1.0000
  O   O19       1.0  0.60470  0.48850  0.72170  1.0000
  O   O20       1.0  0.89530  0.98850  0.77830  1.0000
  O   O21       1.0  0.35060  0.46420  0.39700  1.0000
  O   O22       1.0  0.14940  0.96420  0.10300  1.0000
  O   O23       1.0  0.64940  0.53580  0.60300  1.0000
  O   O24       1.0  0.85060  0.03580  0.89700  1.0000
  O   O25       1.0  0.39050  0.88540  0.63220  1.0000
  O   O26       1.0  0.10950  0.38540  0.86780  1.0000
  O   O27       1.0  0.60950  0.11460  0.36780  1.0000
  O   O28       1.0  0.89050  0.61460  0.13220  1.0000
  O   O29       1.0  0.32510  0.73600  0.63390  1.0000
  O   O30       1.0  0.17490  0.23600  0.86610  1.0000
  O   O31       1.0  0.67490  0.26400  0.36610  1.0000
  O   O32       1.0  0.82510  0.76400  0.13390  1.0000
  O   O33       1.0  0.29370  0.25980  0.40790  1.0000
  O   O34       1.0  0.20630  0.75980  0.09210  1.0000
  O   O35       1.0  0.70630  0.74020  0.59210  1.0000
  O   O36       1.0  0.79370  0.24020  0.90790  1.0000
  O   O37       1.0  0.29910  0.15660  0.29720  1.0000
  O   O38       1.0  0.20090  0.65660  0.20280  1.0000
  O   O39       1.0  0.70090  0.84340  0.70280  1.0000
  O   O40       1.0  0.79910  0.34340  0.79720  1.0000
  O   O41       1.0  0.24020  0.17900  0.71970  1.0000
  O   O42       1.0  0.25980  0.67900  0.78030  1.0000
  O   O43       1.0  0.75980  0.82100  0.28030  1.0000
  O   O44       1.0  0.74020  0.32100  0.21970  1.0000
  O   O45       1.0  0.24570  0.29910  0.62180  1.0000
  O   O46       1.0  0.25430  0.79910  0.87820  1.0000
  O   O47       1.0  0.75430  0.70090  0.37820  1.0000
  O   O48       1.0  0.74570  0.20090  0.12180  1.0000
  O   O49       1.0  0.34450  0.22170  0.14670  1.0000
  O   O50       1.0  0.15550  0.72170  0.35330  1.0000
  O   O51       1.0  0.65550  0.77830  0.85330  1.0000
  O   O52       1.0  0.84450  0.27830  0.64670  1.0000
  O   O53       1.0  0.39200  0.37790  0.14080  1.0000
  O   O54       1.0  0.10800  0.87790  0.35920  1.0000
  O   O55       1.0  0.60800  0.62210  0.85920  1.0000
  O   O56       1.0  0.89200  0.12210  0.64080  1.0000
  O   O57       1.0  0.33580  0.97950  0.88190  1.0000
  O   O58       1.0  0.16420  0.47950  0.61810  1.0000
  O   O59       1.0  0.66420  0.02050  0.11810  1.0000
  O   O60       1.0  0.83580  0.52050  0.38190  1.0000
  O   O61       1.0  0.40950  0.01540  0.78090  1.0000
  O   O62       1.0  0.09050  0.51540  0.71910  1.0000
  O   O63       1.0  0.59050  0.98460  0.21910  1.0000
  O   O64       1.0  0.90950  0.48460  0.28090  1.0000
  C   C1        1.0  0.37970  0.53430  0.35400  1.0000
  C   C2        1.0  0.12030  0.03430  0.14600  1.0000
  C   C3        1.0  0.62030  0.46570  0.64600  1.0000
  C   C4        1.0  0.87970  0.96570  0.85400  1.0000
  C   C5        1.0  0.39380  0.64200  0.38810  1.0000
  C   C6        1.0  0.10620  0.14200  0.11190  1.0000
  C   C7        1.0  0.60620  0.35800  0.61190  1.0000
  C   C8        1.0  0.89380  0.85800  0.88810  1.0000
  H   H1        1.0  0.35320  0.68750  0.34380  1.0000
  H   H2        1.0  0.14680  0.18750  0.15620  1.0000
  H   H3        1.0  0.64680  0.31250  0.65620  1.0000
  H   H4        1.0  0.85320  0.81250  0.84380  1.0000
  H   H5        1.0  0.45720  0.66210  0.39070  1.0000
  H   H6        1.0  0.04280  0.16210  0.10930  1.0000
  H   H7        1.0  0.54280  0.33790  0.60930  1.0000
  H   H8        1.0  0.95720  0.83790  0.89070  1.0000
  C   C9        1.0  0.37660  0.66070  0.48060  1.0000
  C   C10       1.0  0.12340  0.16070  0.01940  1.0000
  C   C11       1.0  0.62340  0.33930  0.51940  1.0000
  C   C12       1.0  0.87660  0.83930  0.98060  1.0000
  H   H9        1.0  0.42040  0.62020  0.52660  1.0000
  H   H10       1.0  0.07960  0.12020  0.97340  1.0000
  H   H11       1.0  0.57960  0.37980  0.47340  1.0000
  H   H12       1.0  0.92040  0.87980  0.02660  1.0000
  H   H13       1.0  0.31450  0.63740  0.48010  1.0000
  H   H14       1.0  0.18550  0.13740  0.01990  1.0000
  H   H15       1.0  0.68550  0.36260  0.51990  1.0000
  H   H16       1.0  0.81450  0.86260  0.98010  1.0000
  C   C13       1.0  0.38650  0.77370  0.50600  1.0000
  C   C14       1.0  0.11350  0.27370  0.99400  1.0000
  C   C15       1.0  0.61350  0.22630  0.49400  1.0000
  C   C16       1.0  0.88650  0.72630  0.00600  1.0000
  H   H17       1.0  0.44930  0.79570  0.50790  1.0000
  H   H18       1.0  0.05070  0.29570  0.99210  1.0000
  H   H19       1.0  0.55070  0.20430  0.49210  1.0000
  H   H20       1.0  0.94930  0.70430  0.00790  1.0000
  H   H21       1.0  0.34460  0.81390  0.45800  1.0000
  H   H22       1.0  0.15540  0.31390  0.04200  1.0000
  H   H23       1.0  0.65540  0.18610  0.54200  1.0000
  H   H24       1.0  0.84460  0.68610  0.95800  1.0000
  C   C17       1.0  0.36710  0.79840  0.59480  1.0000
  C   C18       1.0  0.13290  0.29840  0.90520  1.0000
  C   C19       1.0  0.63290  0.20160  0.40520  1.0000
  C   C20       1.0  0.86710  0.70160  0.09480  1.0000
  C   C21       1.0  0.28440  0.17000  0.37520  1.0000
  C   C22       1.0  0.21560  0.67000  0.12480  1.0000
  C   C23       1.0  0.71560  0.83000  0.62480  1.0000
  C   C24       1.0  0.78440  0.33000  0.87520  1.0000
  C   C25       1.0  0.25990  0.07900  0.42450  1.0000
  C   C26       1.0  0.24010  0.57900  0.07550  1.0000
  C   C27       1.0  0.74010  0.92100  0.57550  1.0000
  C   C28       1.0  0.75990  0.42100  0.92450  1.0000
  H   H25       1.0  0.31490  0.03620  0.44630  1.0000
  H   H26       1.0  0.18510  0.53620  0.05370  1.0000
  H   H27       1.0  0.68510  0.96380  0.55370  1.0000
  H   H28       1.0  0.81490  0.46380  0.94630  1.0000
  H   H29       1.0  0.21440  0.03730  0.38120  1.0000
  H   H30       1.0  0.28560  0.53730  0.11880  1.0000
  H   H31       1.0  0.78560  0.96270  0.61880  1.0000
  H   H32       1.0  0.71440  0.46270  0.88120  1.0000
  C   C29       1.0  0.22170  0.10600  0.50480  1.0000
  C   C30       1.0  0.27830  0.60600  0.99520  1.0000
  C   C31       1.0  0.77830  0.89400  0.49520  1.0000
  C   C32       1.0  0.72170  0.39400  0.00480  1.0000
  H   H33       1.0  0.17880  0.16410  0.48820  1.0000
  H   H34       1.0  0.32120  0.66410  0.01180  1.0000
  H   H35       1.0  0.82120  0.83590  0.51180  1.0000
  H   H36       1.0  0.67880  0.33590  0.98820  1.0000
  H   H37       1.0  0.18730  0.04660  0.51930  1.0000
  H   H38       1.0  0.31270  0.54660  0.98070  1.0000
  H   H39       1.0  0.81270  0.95340  0.48070  1.0000
  H   H40       1.0  0.68730  0.45340  0.01930  1.0000
  C   C33       1.0  0.29610  0.13460  0.58810  1.0000
  C   C34       1.0  0.20390  0.63460  0.91190  1.0000
  C   C35       1.0  0.70390  0.86540  0.41190  1.0000
  C   C36       1.0  0.79610  0.36540  0.08810  1.0000
  H   H41       1.0  0.31980  0.07190  0.62250  1.0000
  H   H42       1.0  0.18020  0.57190  0.87750  1.0000
  H   H43       1.0  0.68020  0.92810  0.37750  1.0000
  H   H44       1.0  0.81980  0.42810  0.12250  1.0000
  H   H45       1.0  0.34690  0.16790  0.56930  1.0000
  H   H46       1.0  0.15310  0.66790  0.93070  1.0000
  H   H47       1.0  0.65310  0.83210  0.43070  1.0000
  H   H48       1.0  0.84690  0.33210  0.06930  1.0000
  C   C37       1.0  0.25990  0.20630  0.64750  1.0000
  C   C38       1.0  0.24010  0.70630  0.85250  1.0000
  C   C39       1.0  0.74010  0.79370  0.35250  1.0000
  C   C40       1.0  0.75990  0.29370  0.14750  1.0000
  C   C41       1.0  0.37860  0.28870  0.10580  1.0000
  C   C42       1.0  0.12140  0.78870  0.39420  1.0000
  C   C43       1.0  0.62140  0.71130  0.89420  1.0000
  C   C44       1.0  0.87860  0.21130  0.60580  1.0000
  C   C45       1.0  0.40140  0.26840  0.01750  1.0000
  C   C46       1.0  0.09860  0.76840  0.48250  1.0000
  C   C47       1.0  0.59860  0.73160  0.98250  1.0000
  C   C48       1.0  0.90140  0.23160  0.51750  1.0000
  H   H49       1.0  0.46550  0.28810  0.02320  1.0000
  H   H50       1.0  0.03450  0.78810  0.47680  1.0000
  H   H51       1.0  0.53450  0.71190  0.97680  1.0000
  H   H52       1.0  0.96550  0.21190  0.52320  1.0000
  H   H53       1.0  0.36270  0.31240  0.97030  1.0000
  H   H54       1.0  0.13730  0.81240  0.52970  1.0000
  H   H55       1.0  0.63730  0.68760  0.02970  1.0000
  H   H56       1.0  0.86270  0.18760  0.47030  1.0000
  C   C49       1.0  0.38850  0.15710  0.98650  1.0000
  C   C50       1.0  0.11150  0.65710  0.51350  1.0000
  C   C51       1.0  0.61150  0.84290  0.01350  1.0000
  C   C52       1.0  0.88850  0.34290  0.48650  1.0000
  H   H57       1.0  0.42710  0.11230  0.03310  1.0000
  H   H58       1.0  0.07290  0.61230  0.46690  1.0000
  H   H59       1.0  0.57290  0.88770  0.96690  1.0000
  H   H60       1.0  0.92710  0.38770  0.53310  1.0000
  H   H61       1.0  0.32430  0.13690  0.97960  1.0000
  H   H62       1.0  0.17570  0.63690  0.52040  1.0000
  H   H63       1.0  0.67570  0.86310  0.02040  1.0000
  H   H64       1.0  0.82430  0.36310  0.47960  1.0000
  C   C53       1.0  0.41340  0.14220  0.89700  1.0000
  C   C54       1.0  0.08660  0.64220  0.60300  1.0000
  C   C55       1.0  0.58660  0.85780  0.10300  1.0000
  C   C56       1.0  0.91340  0.35780  0.39700  1.0000
  H   H65       1.0  0.38470  0.19750  0.85500  1.0000
  H   H66       1.0  0.11530  0.69750  0.64500  1.0000
  H   H67       1.0  0.61530  0.80250  0.14500  1.0000
  H   H68       1.0  0.88470  0.30250  0.35500  1.0000
  H   H69       1.0  0.48010  0.14930  0.90750  1.0000
  H   H70       1.0  0.01990  0.64930  0.59250  1.0000
  H   H71       1.0  0.51990  0.85070  0.09250  1.0000
  H   H72       1.0  0.98010  0.35070  0.40750  1.0000
  C   C57       1.0  0.38520  0.04120  0.85240  1.0000
  C   C58       1.0  0.11480  0.54120  0.64760  1.0000
  C   C59       1.0  0.61480  0.95880  0.14760  1.0000
  C   C60       1.0  0.88520  0.45880  0.35240  1.0000
