data_image0
_chemical_formula_structural       Er2O16C4O4H4Er2O12C12H4
_chemical_formula_sum              "Er4 O32 C16 H8"
_cell_length_a       9.17
_cell_length_b       8.9919
_cell_length_c       13.19
_cell_angle_alpha    90
_cell_angle_beta     96.851
_cell_angle_gamma    90

_space_group_name_H-M_alt    "P 1"
_space_group_IT_number       1

loop_
  _space_group_symop_operation_xyz
  'x, y, z'

loop_
  _atom_site_type_symbol
  _atom_site_label
  _atom_site_symmetry_multiplicity
  _atom_site_fract_x
  _atom_site_fract_y
  _atom_site_fract_z
  _atom_site_occupancy
  Er  Er1       1.0  0.75000  0.25278  0.25000  1.0000
  Er  Er2       1.0  0.25000  0.74722  0.75000  1.0000
  O   O1        1.0  0.65330  0.45120  0.33680  1.0000
  O   O2        1.0  0.84670  0.45120  0.16320  1.0000
  O   O3        1.0  0.34670  0.54880  0.66320  1.0000
  O   O4        1.0  0.15330  0.54880  0.83680  1.0000
  O   O5        1.0  0.52410  0.34200  0.16220  1.0000
  O   O6        1.0  0.97590  0.34200  0.33780  1.0000
  O   O7        1.0  0.47590  0.65800  0.83780  1.0000
  O   O8        1.0  0.02410  0.65800  0.66220  1.0000
  O   O9        1.0  0.75480  0.16900  0.42020  1.0000
  O   O10       1.0  0.74520  0.16900  0.07980  1.0000
  O   O11       1.0  0.24520  0.83100  0.57980  1.0000
  O   O12       1.0  0.25480  0.83100  0.92020  1.0000
  O   O13       1.0  0.59410  0.05600  0.25380  1.0000
  O   O14       1.0  0.90590  0.05600  0.24620  1.0000
  O   O15       1.0  0.40590  0.94400  0.74620  1.0000
  O   O16       1.0  0.09410  0.94400  0.75380  1.0000
  C   C1        1.0  0.77290  0.24300  0.50130  1.0000
  C   C2        1.0  0.72710  0.24300  0.99870  1.0000
  C   C3        1.0  0.22710  0.75700  0.49870  1.0000
  C   C4        1.0  0.27290  0.75700  0.00130  1.0000
  O   O17       1.0  0.75890  0.19390  0.58710  1.0000
  O   O18       1.0  0.74110  0.19390  0.91290  1.0000
  O   O19       1.0  0.24110  0.80610  0.41290  1.0000
  O   O20       1.0  0.25890  0.80610  0.08710  1.0000
  H   H1        1.0  0.79890  0.34250  0.49650  1.0000
  H   H2        1.0  0.70110  0.34250  0.00350  1.0000
  H   H3        1.0  0.20110  0.65750  0.50350  1.0000
  H   H4        1.0  0.29890  0.65750  0.99650  1.0000
  Er  Er3       1.0  0.75000  0.28984  0.75000  1.0000
  Er  Er4       1.0  0.25000  0.71016  0.25000  1.0000
  O   O21       1.0  0.65550  0.49020  0.83730  1.0000
  O   O22       1.0  0.84450  0.49020  0.66270  1.0000
  O   O23       1.0  0.34450  0.50980  0.16270  1.0000
  O   O24       1.0  0.15550  0.50980  0.33730  1.0000
  O   O25       1.0  0.97130  0.38620  0.84030  1.0000
  O   O26       1.0  0.52870  0.38620  0.65970  1.0000
  O   O27       1.0  0.02870  0.61380  0.15970  1.0000
  O   O28       1.0  0.47130  0.61380  0.34030  1.0000
  O   O29       1.0  0.92510  0.10650  0.76810  1.0000
  O   O30       1.0  0.57490  0.10650  0.73190  1.0000
  O   O31       1.0  0.07490  0.89350  0.23190  1.0000
  O   O32       1.0  0.42510  0.89350  0.26810  1.0000
  C   C5        1.0  0.53970  0.55180  0.80130  1.0000
  C   C6        1.0  0.96030  0.55180  0.69870  1.0000
  C   C7        1.0  0.46030  0.44820  0.19870  1.0000
  C   C8        1.0  0.03970  0.44820  0.30130  1.0000
  C   C9        1.0  0.03560  0.49100  0.80200  1.0000
  C   C10       1.0  0.46440  0.49100  0.69800  1.0000
  C   C11       1.0  0.96440  0.50900  0.19800  1.0000
  C   C12       1.0  0.53560  0.50900  0.30200  1.0000
  C   C13       1.0  0.97230  0.99520  0.73120  1.0000
  C   C14       1.0  0.52770  0.99520  0.76880  1.0000
  C   C15       1.0  0.02770  0.00480  0.26880  1.0000
  C   C16       1.0  0.47230  0.00480  0.23120  1.0000
  H   H5        1.0  0.91000  0.94520  0.68180  1.0000
  H   H6        1.0  0.59000  0.94520  0.81820  1.0000
  H   H7        1.0  0.09000  0.05480  0.31820  1.0000
  H   H8        1.0  0.41000  0.05480  0.18180  1.0000
