data_image0
_chemical_formula_structural       Zn8O56N8C12H4C4H4C4H4C4H4C4H8C12H8C8H8C8H4C4H4C4H4C4H4C8H8C8H8C8H8C4
_chemical_formula_sum              "Zn8 O56 N8 C96 H80"
_cell_length_a       9.296
_cell_length_b       18.4231
_cell_length_c       24.482
_cell_angle_alpha    90
_cell_angle_beta     90.0021
_cell_angle_gamma    90

_space_group_name_H-M_alt    "P 1"
_space_group_IT_number       1

loop_
  _space_group_symop_operation_xyz
  'x, y, z'

loop_
  _atom_site_type_symbol
  _atom_site_label
  _atom_site_symmetry_multiplicity
  _atom_site_fract_x
  _atom_site_fract_y
  _atom_site_fract_z
  _atom_site_occupancy
  Zn  Zn1       1.0  0.85841  0.20081  0.48608  1.0000
  Zn  Zn2       1.0  0.64159  0.70081  0.01392  1.0000
  Zn  Zn3       1.0  0.14159  0.79919  0.51392  1.0000
  Zn  Zn4       1.0  0.35841  0.29919  0.98608  1.0000
  Zn  Zn5       1.0  0.35822  0.29882  0.51766  1.0000
  Zn  Zn6       1.0  0.14178  0.79882  0.98234  1.0000
  Zn  Zn7       1.0  0.64178  0.70118  0.48234  1.0000
  Zn  Zn8       1.0  0.85822  0.20118  0.01766  1.0000
  O   O1        1.0  0.98480  0.10570  0.46086  1.0000
  O   O2        1.0  0.51520  0.60570  0.03914  1.0000
  O   O3        1.0  0.01520  0.89430  0.53914  1.0000
  O   O4        1.0  0.48480  0.39430  0.96086  1.0000
  O   O5        1.0  0.07150  0.22600  0.49685  1.0000
  O   O6        1.0  0.42850  0.72600  0.00315  1.0000
  O   O7        1.0  0.92850  0.77400  0.50315  1.0000
  O   O8        1.0  0.57150  0.27400  0.99685  1.0000
  O   O9        1.0  0.30570  0.19740  0.48925  1.0000
  O   O10       1.0  0.19430  0.69740  0.01075  1.0000
  O   O11       1.0  0.69430  0.80260  0.51075  1.0000
  O   O12       1.0  0.80570  0.30260  0.98925  1.0000
  O   O13       1.0  0.80200  0.15610  0.55942  1.0000
  O   O14       1.0  0.69800  0.65610  0.94058  1.0000
  O   O15       1.0  0.19800  0.84390  0.44058  1.0000
  O   O16       1.0  0.30200  0.34390  0.05942  1.0000
  O   O17       1.0  0.63870  0.09000  0.60376  1.0000
  O   O18       1.0  0.86130  0.59000  0.89624  1.0000
  O   O19       1.0  0.36130  0.91000  0.39624  1.0000
  O   O20       1.0  0.13870  0.41000  0.10376  1.0000
  O   O21       1.0  0.83020  0.22800  0.40476  1.0000
  O   O22       1.0  0.66980  0.72800  0.09524  1.0000
  O   O23       1.0  0.16980  0.77200  0.59524  1.0000
  O   O24       1.0  0.33020  0.27200  0.90476  1.0000
  O   O25       1.0  0.65250  0.23850  0.34197  1.0000
  O   O26       1.0  0.84750  0.73850  0.15803  1.0000
  O   O27       1.0  0.34750  0.76150  0.65803  1.0000
  O   O28       1.0  0.15250  0.26150  0.84197  1.0000
  O   O29       1.0  0.48130  0.39510  0.54092  1.0000
  O   O30       1.0  0.01870  0.89510  0.95908  1.0000
  O   O31       1.0  0.51870  0.60490  0.45908  1.0000
  O   O32       1.0  0.98130  0.10490  0.04092  1.0000
  O   O33       1.0  0.57280  0.27290  0.50584  1.0000
  O   O34       1.0  0.92720  0.77290  0.99416  1.0000
  O   O35       1.0  0.42720  0.72710  0.49416  1.0000
  O   O36       1.0  0.07280  0.22710  0.00584  1.0000
  O   O37       1.0  0.80280  0.30210  0.51264  1.0000
  O   O38       1.0  0.69720  0.80210  0.98736  1.0000
  O   O39       1.0  0.19720  0.69790  0.48736  1.0000
  O   O40       1.0  0.30280  0.19790  0.01264  1.0000
  O   O41       1.0  0.32570  0.27240  0.59828  1.0000
  O   O42       1.0  0.17430  0.77240  0.90172  1.0000
  O   O43       1.0  0.67430  0.72760  0.40172  1.0000
  O   O44       1.0  0.82570  0.22760  0.09828  1.0000
  O   O45       1.0  0.15700  0.26180  0.66056  1.0000
  O   O46       1.0  0.34300  0.76180  0.83944  1.0000
  O   O47       1.0  0.84300  0.73820  0.33944  1.0000
  O   O48       1.0  0.65700  0.23820  0.16056  1.0000
  O   O49       1.0  0.30090  0.34280  0.44334  1.0000
  O   O50       1.0  0.19910  0.84280  0.05666  1.0000
  O   O51       1.0  0.69910  0.65720  0.55666  1.0000
  O   O52       1.0  0.80090  0.15720  0.94334  1.0000
  O   O53       1.0  0.13660  0.40950  0.39948  1.0000
  O   O54       1.0  0.36340  0.90950  0.10052  1.0000
  O   O55       1.0  0.86340  0.59050  0.60052  1.0000
  O   O56       1.0  0.63660  0.09050  0.89948  1.0000
  N   N1        1.0  0.69460  0.11840  0.45933  1.0000
  N   N2        1.0  0.80540  0.61840  0.04067  1.0000
  N   N3        1.0  0.30540  0.88160  0.54067  1.0000
  N   N4        1.0  0.19460  0.38160  0.95933  1.0000
  N   N5        1.0  0.19280  0.38180  0.54444  1.0000
  N   N6        1.0  0.30720  0.88180  0.95556  1.0000
  N   N7        1.0  0.80720  0.61820  0.45556  1.0000
  N   N8        1.0  0.69280  0.11820  0.04444  1.0000
  C   C1        1.0  0.91270  0.04750  0.43970  1.0000
  C   C2        1.0  0.58730  0.54750  0.06030  1.0000
  C   C3        1.0  0.08730  0.95250  0.56030  1.0000
  C   C4        1.0  0.41270  0.45250  0.93970  1.0000
  C   C5        1.0  0.76320  0.05230  0.43800  1.0000
  C   C6        1.0  0.73680  0.55230  0.06200  1.0000
  C   C7        1.0  0.23680  0.94770  0.56200  1.0000
  C   C8        1.0  0.26320  0.44770  0.93800  1.0000
  C   C9        1.0  0.68210  0.99320  0.41870  1.0000
  C   C10       1.0  0.81790  0.49320  0.08130  1.0000
  C   C11       1.0  0.31790  0.00680  0.58130  1.0000
  C   C12       1.0  0.18210  0.50680  0.91870  1.0000
  H   H1        1.0  0.58000  0.99590  0.41830  1.0000
  H   H2        1.0  0.92000  0.49590  0.08170  1.0000
  H   H3        1.0  0.42000  0.00410  0.58170  1.0000
  H   H4        1.0  0.08000  0.50410  0.91830  1.0000
  C   C13       1.0  0.75020  0.93170  0.40040  1.0000
  C   C14       1.0  0.74980  0.43170  0.09960  1.0000
  C   C15       1.0  0.24980  0.06830  0.59960  1.0000
  C   C16       1.0  0.25020  0.56830  0.90040  1.0000
  H   H5        1.0  0.69500  0.89170  0.38780  1.0000
  H   H6        1.0  0.80500  0.39170  0.11220  1.0000
  H   H7        1.0  0.30500  0.10830  0.61220  1.0000
  H   H8        1.0  0.19500  0.60830  0.88780  1.0000
  C   C17       1.0  0.89710  0.92800  0.40010  1.0000
  C   C18       1.0  0.60290  0.42800  0.09990  1.0000
  C   C19       1.0  0.10290  0.07200  0.59990  1.0000
  C   C20       1.0  0.39710  0.57200  0.90010  1.0000
  H   H9        1.0  0.94350  0.88580  0.38640  1.0000
  H   H10       1.0  0.55650  0.38580  0.11360  1.0000
  H   H11       1.0  0.05650  0.11420  0.61360  1.0000
  H   H12       1.0  0.44350  0.61420  0.88640  1.0000
  C   C21       1.0  0.98130  0.98680  0.42040  1.0000
  C   C22       1.0  0.51870  0.48680  0.07960  1.0000
  C   C23       1.0  0.01870  0.01320  0.57960  1.0000
  C   C24       1.0  0.48130  0.51320  0.92040  1.0000
  H   H13       1.0  0.08340  0.98400  0.42040  1.0000
  H   H14       1.0  0.41660  0.48400  0.07960  1.0000
  H   H15       1.0  0.91660  0.01600  0.57960  1.0000
  H   H16       1.0  0.58340  0.51600  0.92040  1.0000
  C   C25       1.0  0.13840  0.10950  0.46080  1.0000
  C   C26       1.0  0.36160  0.60950  0.03920  1.0000
  C   C27       1.0  0.86160  0.89050  0.53920  1.0000
  C   C28       1.0  0.63840  0.39050  0.96080  1.0000
  H   H17       1.0  0.17700  0.10470  0.42330  1.0000
  H   H18       1.0  0.32300  0.60470  0.07670  1.0000
  H   H19       1.0  0.82300  0.89530  0.57670  1.0000
  H   H20       1.0  0.67700  0.39530  0.92330  1.0000
  H   H21       1.0  0.18050  0.07100  0.48400  1.0000
  H   H22       1.0  0.31950  0.57100  0.01600  1.0000
  H   H23       1.0  0.81950  0.92900  0.51600  1.0000
  H   H24       1.0  0.68050  0.42900  0.98400  1.0000
  C   C29       1.0  0.16980  0.18450  0.48410  1.0000
  C   C30       1.0  0.33020  0.68450  0.01590  1.0000
  C   C31       1.0  0.83020  0.81550  0.51590  1.0000
  C   C32       1.0  0.66980  0.31550  0.98410  1.0000
  C   C33       1.0  0.69090  0.11670  0.56150  1.0000
  C   C34       1.0  0.80910  0.61670  0.93850  1.0000
  C   C35       1.0  0.30910  0.88330  0.43850  1.0000
  C   C36       1.0  0.19090  0.38330  0.06150  1.0000
  C   C37       1.0  0.60960  0.10310  0.50870  1.0000
  C   C38       1.0  0.89040  0.60310  0.99130  1.0000
  C   C39       1.0  0.39040  0.89690  0.49130  1.0000
  C   C40       1.0  0.10960  0.39690  0.00870  1.0000
  H   H25       1.0  0.57840  0.05170  0.50790  1.0000
  H   H26       1.0  0.92160  0.55170  0.99210  1.0000
  H   H27       1.0  0.42160  0.94830  0.49210  1.0000
  H   H28       1.0  0.07840  0.44830  0.00790  1.0000
  H   H29       1.0  0.52220  0.13380  0.50830  1.0000
  H   H30       1.0  0.97780  0.63380  0.99170  1.0000
  H   H31       1.0  0.47780  0.86620  0.49170  1.0000
  H   H32       1.0  0.02220  0.36620  0.00830  1.0000
  C   C41       1.0  0.70340  0.21060  0.38500  1.0000
  C   C42       1.0  0.79660  0.71060  0.11500  1.0000
  C   C43       1.0  0.29660  0.78940  0.61500  1.0000
  C   C44       1.0  0.20340  0.28940  0.88500  1.0000
  C   C45       1.0  0.61200  0.15670  0.41510  1.0000
  C   C46       1.0  0.88800  0.65670  0.08490  1.0000
  C   C47       1.0  0.38800  0.84330  0.58490  1.0000
  C   C48       1.0  0.11200  0.34330  0.91510  1.0000
  H   H33       1.0  0.57450  0.12030  0.38890  1.0000
  H   H34       1.0  0.92550  0.62030  0.11110  1.0000
  H   H35       1.0  0.42550  0.87970  0.61110  1.0000
  H   H36       1.0  0.07450  0.37970  0.88890  1.0000
  H   H37       1.0  0.52870  0.18210  0.43150  1.0000
  H   H38       1.0  0.97130  0.68210  0.06850  1.0000
  H   H39       1.0  0.47130  0.81790  0.56850  1.0000
  H   H40       1.0  0.02870  0.31790  0.93150  1.0000
  C   C49       1.0  0.41380  0.45450  0.56170  1.0000
  C   C50       1.0  0.08620  0.95450  0.93830  1.0000
  C   C51       1.0  0.58620  0.54550  0.43830  1.0000
  C   C52       1.0  0.91380  0.04550  0.06170  1.0000
  C   C53       1.0  0.48200  0.51900  0.57870  1.0000
  C   C54       1.0  0.01800  0.01900  0.92130  1.0000
  C   C55       1.0  0.51800  0.48100  0.42130  1.0000
  C   C56       1.0  0.98200  0.98100  0.07870  1.0000
  H   H41       1.0  0.58380  0.52300  0.57720  1.0000
  H   H42       1.0  0.91620  0.02300  0.92280  1.0000
  H   H43       1.0  0.41620  0.47700  0.42280  1.0000
  H   H44       1.0  0.08380  0.97700  0.07720  1.0000
  C   C57       1.0  0.40200  0.57520  0.59720  1.0000
  C   C58       1.0  0.09800  0.07520  0.90280  1.0000
  C   C59       1.0  0.59800  0.42480  0.40280  1.0000
  C   C60       1.0  0.90200  0.92480  0.09720  1.0000
  H   H45       1.0  0.44830  0.61850  0.60870  1.0000
  H   H46       1.0  0.05170  0.11850  0.89130  1.0000
  H   H47       1.0  0.55170  0.38150  0.39130  1.0000
  H   H48       1.0  0.94830  0.88150  0.10870  1.0000
  C   C61       1.0  0.25080  0.57030  0.59950  1.0000
  C   C62       1.0  0.24920  0.07030  0.90050  1.0000
  C   C63       1.0  0.74920  0.42970  0.40050  1.0000
  C   C64       1.0  0.75080  0.92970  0.09950  1.0000
  H   H49       1.0  0.19510  0.60990  0.61250  1.0000
  H   H50       1.0  0.30490  0.10990  0.88750  1.0000
  H   H51       1.0  0.80490  0.39010  0.38750  1.0000
  H   H52       1.0  0.69510  0.89010  0.11250  1.0000
  C   C65       1.0  0.18390  0.50630  0.58220  1.0000
  C   C66       1.0  0.31610  0.00630  0.91780  1.0000
  C   C67       1.0  0.81610  0.49370  0.41780  1.0000
  C   C68       1.0  0.68390  0.99370  0.08220  1.0000
  H   H53       1.0  0.08210  0.50280  0.58400  1.0000
  H   H54       1.0  0.41790  0.00280  0.91600  1.0000
  H   H55       1.0  0.91790  0.49720  0.41600  1.0000
  H   H56       1.0  0.58210  0.99720  0.08400  1.0000
  C   C69       1.0  0.26230  0.44770  0.56270  1.0000
  C   C70       1.0  0.23770  0.94770  0.93730  1.0000
  C   C71       1.0  0.73770  0.55230  0.43730  1.0000
  C   C72       1.0  0.76230  0.05230  0.06270  1.0000
  C   C73       1.0  0.63450  0.39000  0.54100  1.0000
  C   C74       1.0  0.86550  0.89000  0.95900  1.0000
  C   C75       1.0  0.36550  0.61000  0.45900  1.0000
  C   C76       1.0  0.13450  0.11000  0.04100  1.0000
  H   H57       1.0  0.67200  0.39480  0.57870  1.0000
  H   H58       1.0  0.82800  0.89480  0.92130  1.0000
  H   H59       1.0  0.32800  0.60520  0.42130  1.0000
  H   H60       1.0  0.17200  0.10520  0.07870  1.0000
  H   H61       1.0  0.67690  0.42900  0.51840  1.0000
  H   H62       1.0  0.82310  0.92900  0.98160  1.0000
  H   H63       1.0  0.32310  0.57100  0.48160  1.0000
  H   H64       1.0  0.17690  0.07100  0.01840  1.0000
  C   C77       1.0  0.67330  0.31580  0.51760  1.0000
  C   C78       1.0  0.82670  0.81580  0.98240  1.0000
  C   C79       1.0  0.32670  0.68420  0.48240  1.0000
  C   C80       1.0  0.17330  0.18420  0.01760  1.0000
  C   C81       1.0  0.11510  0.34450  0.58860  1.0000
  C   C82       1.0  0.38490  0.84450  0.91140  1.0000
  C   C83       1.0  0.88490  0.65550  0.41140  1.0000
  C   C84       1.0  0.61510  0.15550  0.08860  1.0000
  H   H65       1.0  0.02980  0.31990  0.57300  1.0000
  H   H66       1.0  0.47020  0.81990  0.92700  1.0000
  H   H67       1.0  0.97020  0.68010  0.42700  1.0000
  H   H68       1.0  0.52980  0.18010  0.07300  1.0000
  H   H69       1.0  0.08060  0.38110  0.61520  1.0000
  H   H70       1.0  0.41940  0.88110  0.88480  1.0000
  H   H71       1.0  0.91940  0.61890  0.38480  1.0000
  H   H72       1.0  0.58060  0.11890  0.11520  1.0000
  C   C85       1.0  0.20820  0.28790  0.61880  1.0000
  C   C86       1.0  0.29180  0.78790  0.88120  1.0000
  C   C87       1.0  0.79180  0.71210  0.38120  1.0000
  C   C88       1.0  0.70820  0.21210  0.11880  1.0000
  C   C89       1.0  0.10560  0.39670  0.49470  1.0000
  C   C90       1.0  0.39440  0.89670  0.00530  1.0000
  C   C91       1.0  0.89440  0.60330  0.50530  1.0000
  C   C92       1.0  0.60560  0.10330  0.99470  1.0000
  H   H73       1.0  0.07380  0.44800  0.49540  1.0000
  H   H74       1.0  0.42620  0.94800  0.00460  1.0000
  H   H75       1.0  0.92620  0.55200  0.50460  1.0000
  H   H76       1.0  0.57380  0.05200  0.99540  1.0000
  H   H77       1.0  0.01860  0.36580  0.49540  1.0000
  H   H78       1.0  0.48140  0.86580  0.00460  1.0000
  H   H79       1.0  0.98140  0.63420  0.50460  1.0000
  H   H80       1.0  0.51860  0.13420  0.99540  1.0000
  C   C93       1.0  0.18700  0.38280  0.44200  1.0000
  C   C94       1.0  0.31300  0.88280  0.05800  1.0000
  C   C95       1.0  0.81300  0.61720  0.55800  1.0000
  C   C96       1.0  0.68700  0.11720  0.94200  1.0000
