data_image0
_chemical_formula_structural       Zn12O64C24H8C8H8C16H8C8H8C32H8C8H8C24H8C8H8
_chemical_formula_sum              "Zn12 O64 C128 H64"
_cell_length_a       33.299
_cell_length_b       9.79
_cell_length_c       18.185
_cell_angle_alpha    90
_cell_angle_beta     93.42
_cell_angle_gamma    90

_space_group_name_H-M_alt    "P 1"
_space_group_IT_number       1

loop_
  _space_group_symop_operation_xyz
  'x, y, z'

loop_
  _atom_site_type_symbol
  _atom_site_label
  _atom_site_symmetry_multiplicity
  _atom_site_fract_x
  _atom_site_fract_y
  _atom_site_fract_z
  _atom_site_occupancy
  Zn  Zn1       1.0  0.25000  0.25000  0.50000  1.0000
  Zn  Zn2       1.0  0.75000  0.25000  0.00000  1.0000
  Zn  Zn3       1.0  0.75000  0.75000  0.50000  1.0000
  Zn  Zn4       1.0  0.25000  0.75000  0.00000  1.0000
  Zn  Zn5       1.0  0.34729  0.19939  0.51542  1.0000
  Zn  Zn6       1.0  0.65271  0.19939  0.98458  1.0000
  Zn  Zn7       1.0  0.84729  0.69939  0.51542  1.0000
  Zn  Zn8       1.0  0.15271  0.69939  0.98458  1.0000
  Zn  Zn9       1.0  0.65271  0.80061  0.48458  1.0000
  Zn  Zn10      1.0  0.34729  0.80061  0.01542  1.0000
  Zn  Zn11      1.0  0.15271  0.30061  0.48458  1.0000
  Zn  Zn12      1.0  0.84729  0.30061  0.01542  1.0000
  O   O1        1.0  0.21615  0.11660  0.55479  1.0000
  O   O2        1.0  0.78385  0.11660  0.94521  1.0000
  O   O3        1.0  0.71615  0.61660  0.55479  1.0000
  O   O4        1.0  0.28385  0.61660  0.94521  1.0000
  O   O5        1.0  0.78385  0.88340  0.44521  1.0000
  O   O6        1.0  0.21615  0.88340  0.05479  1.0000
  O   O7        1.0  0.28385  0.38340  0.44521  1.0000
  O   O8        1.0  0.71615  0.38340  0.05479  1.0000
  O   O9        1.0  0.15405  0.18800  0.57530  1.0000
  O   O10       1.0  0.84595  0.18800  0.92470  1.0000
  O   O11       1.0  0.65405  0.68800  0.57530  1.0000
  O   O12       1.0  0.34595  0.68800  0.92470  1.0000
  O   O13       1.0  0.84595  0.81200  0.42470  1.0000
  O   O14       1.0  0.15405  0.81200  0.07530  1.0000
  O   O15       1.0  0.34595  0.31200  0.42470  1.0000
  O   O16       1.0  0.65405  0.31200  0.07530  1.0000
  O   O17       1.0  0.22701  0.81080  0.89950  1.0000
  O   O18       1.0  0.77299  0.81080  0.60050  1.0000
  O   O19       1.0  0.72701  0.31080  0.89950  1.0000
  O   O20       1.0  0.27299  0.31080  0.60050  1.0000
  O   O21       1.0  0.77299  0.18920  0.10050  1.0000
  O   O22       1.0  0.22701  0.18920  0.39950  1.0000
  O   O23       1.0  0.27299  0.68920  0.10050  1.0000
  O   O24       1.0  0.72701  0.68920  0.39950  1.0000
  O   O25       1.0  0.15915  0.81800  0.89970  1.0000
  O   O26       1.0  0.84085  0.81800  0.60030  1.0000
  O   O27       1.0  0.65915  0.31800  0.89970  1.0000
  O   O28       1.0  0.34085  0.31800  0.60030  1.0000
  O   O29       1.0  0.84085  0.18200  0.10030  1.0000
  O   O30       1.0  0.15915  0.18200  0.39970  1.0000
  O   O31       1.0  0.34085  0.68200  0.10030  1.0000
  O   O32       1.0  0.65915  0.68200  0.39970  1.0000
  O   O33       1.0  0.29779  0.08750  0.49400  1.0000
  O   O34       1.0  0.70221  0.08750  0.00600  1.0000
  O   O35       1.0  0.79779  0.58750  0.49400  1.0000
  O   O36       1.0  0.20221  0.58750  0.00600  1.0000
  O   O37       1.0  0.70221  0.91250  0.50600  1.0000
  O   O38       1.0  0.29779  0.91250  0.99400  1.0000
  O   O39       1.0  0.20221  0.41250  0.50600  1.0000
  O   O40       1.0  0.79779  0.41250  0.99400  1.0000
  O   O41       1.0  0.32452  0.97920  0.59190  1.0000
  O   O42       1.0  0.67548  0.97920  0.90810  1.0000
  O   O43       1.0  0.82452  0.47920  0.59190  1.0000
  O   O44       1.0  0.17548  0.47920  0.90810  1.0000
  O   O45       1.0  0.67548  0.02080  0.40810  1.0000
  O   O46       1.0  0.32452  0.02080  0.09190  1.0000
  O   O47       1.0  0.17548  0.52080  0.40810  1.0000
  O   O48       1.0  0.82452  0.52080  0.09190  1.0000
  O   O49       1.0  0.40385  0.15100  0.53580  1.0000
  O   O50       1.0  0.59615  0.15100  0.96420  1.0000
  O   O51       1.0  0.90385  0.65100  0.53580  1.0000
  O   O52       1.0  0.09615  0.65100  0.96420  1.0000
  O   O53       1.0  0.59615  0.84900  0.46420  1.0000
  O   O54       1.0  0.40385  0.84900  0.03580  1.0000
  O   O55       1.0  0.09615  0.34900  0.46420  1.0000
  O   O56       1.0  0.90385  0.34900  0.03580  1.0000
  O   O57       1.0  0.39244  0.01770  0.43880  1.0000
  O   O58       1.0  0.60756  0.01770  0.06120  1.0000
  O   O59       1.0  0.89244  0.51770  0.43880  1.0000
  O   O60       1.0  0.10756  0.51770  0.06120  1.0000
  O   O61       1.0  0.60756  0.98230  0.56120  1.0000
  O   O62       1.0  0.39244  0.98230  0.93880  1.0000
  O   O63       1.0  0.10756  0.48230  0.56120  1.0000
  O   O64       1.0  0.89244  0.48230  0.93880  1.0000
  C   C1        1.0  0.18543  0.12490  0.59230  1.0000
  C   C2        1.0  0.81457  0.12490  0.90770  1.0000
  C   C3        1.0  0.68543  0.62490  0.59230  1.0000
  C   C4        1.0  0.31457  0.62490  0.90770  1.0000
  C   C5        1.0  0.81457  0.87510  0.40770  1.0000
  C   C6        1.0  0.18543  0.87510  0.09230  1.0000
  C   C7        1.0  0.31457  0.37510  0.40770  1.0000
  C   C8        1.0  0.68543  0.37510  0.09230  1.0000
  C   C9        1.0  0.18710  0.05090  0.66470  1.0000
  C   C10       1.0  0.81290  0.05090  0.83530  1.0000
  C   C11       1.0  0.68710  0.55090  0.66470  1.0000
  C   C12       1.0  0.31290  0.55090  0.83530  1.0000
  C   C13       1.0  0.81290  0.94910  0.33530  1.0000
  C   C14       1.0  0.18710  0.94910  0.16470  1.0000
  C   C15       1.0  0.31290  0.44910  0.33530  1.0000
  C   C16       1.0  0.68710  0.44910  0.16470  1.0000
  C   C17       1.0  0.15308  0.03660  0.70390  1.0000
  C   C18       1.0  0.84692  0.03660  0.79610  1.0000
  C   C19       1.0  0.65308  0.53660  0.70390  1.0000
  C   C20       1.0  0.34692  0.53660  0.79610  1.0000
  C   C21       1.0  0.84692  0.96340  0.29610  1.0000
  C   C22       1.0  0.15308  0.96340  0.20390  1.0000
  C   C23       1.0  0.34692  0.46340  0.29610  1.0000
  C   C24       1.0  0.65308  0.46340  0.20390  1.0000
  H   H1        1.0  0.12870  0.07280  0.68520  1.0000
  H   H2        1.0  0.87130  0.07280  0.81480  1.0000
  H   H3        1.0  0.62870  0.57280  0.68520  1.0000
  H   H4        1.0  0.37130  0.57280  0.81480  1.0000
  H   H5        1.0  0.87130  0.92720  0.31480  1.0000
  H   H6        1.0  0.12870  0.92720  0.18520  1.0000
  H   H7        1.0  0.37130  0.42720  0.31480  1.0000
  H   H8        1.0  0.62870  0.42720  0.18520  1.0000
  C   C25       1.0  0.15505  0.96930  0.77030  1.0000
  C   C26       1.0  0.84495  0.96930  0.72970  1.0000
  C   C27       1.0  0.65505  0.46930  0.77030  1.0000
  C   C28       1.0  0.34495  0.46930  0.72970  1.0000
  C   C29       1.0  0.84495  0.03070  0.22970  1.0000
  C   C30       1.0  0.15505  0.03070  0.27030  1.0000
  C   C31       1.0  0.34495  0.53070  0.22970  1.0000
  C   C32       1.0  0.65505  0.53070  0.27030  1.0000
  H   H9        1.0  0.13190  0.96040  0.79620  1.0000
  H   H10       1.0  0.86810  0.96040  0.70380  1.0000
  H   H11       1.0  0.63190  0.46040  0.79620  1.0000
  H   H12       1.0  0.36810  0.46040  0.70380  1.0000
  H   H13       1.0  0.86810  0.03960  0.20380  1.0000
  H   H14       1.0  0.13190  0.03960  0.29620  1.0000
  H   H15       1.0  0.36810  0.53960  0.20380  1.0000
  H   H16       1.0  0.63190  0.53960  0.29620  1.0000
  C   C33       1.0  0.19074  0.91490  0.79910  1.0000
  C   C34       1.0  0.80926  0.91490  0.70090  1.0000
  C   C35       1.0  0.69074  0.41490  0.79910  1.0000
  C   C36       1.0  0.30926  0.41490  0.70090  1.0000
  C   C37       1.0  0.80926  0.08510  0.20090  1.0000
  C   C38       1.0  0.19074  0.08510  0.29910  1.0000
  C   C39       1.0  0.30926  0.58510  0.20090  1.0000
  C   C40       1.0  0.69074  0.58510  0.29910  1.0000
  C   C41       1.0  0.22505  0.92910  0.76190  1.0000
  C   C42       1.0  0.77495  0.92910  0.73810  1.0000
  C   C43       1.0  0.72505  0.42910  0.76190  1.0000
  C   C44       1.0  0.27495  0.42910  0.73810  1.0000
  C   C45       1.0  0.77495  0.07090  0.23810  1.0000
  C   C46       1.0  0.22505  0.07090  0.26190  1.0000
  C   C47       1.0  0.27495  0.57090  0.23810  1.0000
  C   C48       1.0  0.72505  0.57090  0.26190  1.0000
  H   H17       1.0  0.24940  0.89510  0.78210  1.0000
  H   H18       1.0  0.75060  0.89510  0.71790  1.0000
  H   H19       1.0  0.74940  0.39510  0.78210  1.0000
  H   H20       1.0  0.25060  0.39510  0.71790  1.0000
  H   H21       1.0  0.75060  0.10490  0.21790  1.0000
  H   H22       1.0  0.24940  0.10490  0.28210  1.0000
  H   H23       1.0  0.25060  0.60490  0.21790  1.0000
  H   H24       1.0  0.74940  0.60490  0.28210  1.0000
  C   C49       1.0  0.22352  0.99430  0.69420  1.0000
  C   C50       1.0  0.77648  0.99430  0.80580  1.0000
  C   C51       1.0  0.72352  0.49430  0.69420  1.0000
  C   C52       1.0  0.27648  0.49430  0.80580  1.0000
  C   C53       1.0  0.77648  0.00570  0.30580  1.0000
  C   C54       1.0  0.22352  0.00570  0.19420  1.0000
  C   C55       1.0  0.27648  0.50570  0.30580  1.0000
  C   C56       1.0  0.72352  0.50570  0.19420  1.0000
  H   H25       1.0  0.24660  0.00070  0.66810  1.0000
  H   H26       1.0  0.75340  0.00070  0.83190  1.0000
  H   H27       1.0  0.74660  0.50070  0.66810  1.0000
  H   H28       1.0  0.25340  0.50070  0.83190  1.0000
  H   H29       1.0  0.75340  0.99930  0.33190  1.0000
  H   H30       1.0  0.24660  0.99930  0.16810  1.0000
  H   H31       1.0  0.25340  0.49930  0.33190  1.0000
  H   H32       1.0  0.74660  0.49930  0.16810  1.0000
  C   C57       1.0  0.19245  0.84290  0.87260  1.0000
  C   C58       1.0  0.80755  0.84290  0.62740  1.0000
  C   C59       1.0  0.69245  0.34290  0.87260  1.0000
  C   C60       1.0  0.30755  0.34290  0.62740  1.0000
  C   C61       1.0  0.80755  0.15710  0.12740  1.0000
  C   C62       1.0  0.19245  0.15710  0.37260  1.0000
  C   C63       1.0  0.30755  0.65710  0.12740  1.0000
  C   C64       1.0  0.69245  0.65710  0.37260  1.0000
  C   C65       1.0  0.30076  0.98320  0.53880  1.0000
  C   C66       1.0  0.69924  0.98320  0.96120  1.0000
  C   C67       1.0  0.80076  0.48320  0.53880  1.0000
  C   C68       1.0  0.19924  0.48320  0.96120  1.0000
  C   C69       1.0  0.69924  0.01680  0.46120  1.0000
  C   C70       1.0  0.30076  0.01680  0.03880  1.0000
  C   C71       1.0  0.19924  0.51680  0.46120  1.0000
  C   C72       1.0  0.80076  0.51680  0.03880  1.0000
  C   C73       1.0  0.27409  0.86300  0.51890  1.0000
  C   C74       1.0  0.72591  0.86300  0.98110  1.0000
  C   C75       1.0  0.77409  0.36300  0.51890  1.0000
  C   C76       1.0  0.22591  0.36300  0.98110  1.0000
  C   C77       1.0  0.72591  0.13700  0.48110  1.0000
  C   C78       1.0  0.27409  0.13700  0.01890  1.0000
  C   C79       1.0  0.22591  0.63700  0.48110  1.0000
  C   C80       1.0  0.77409  0.63700  0.01890  1.0000
  C   C81       1.0  0.27420  0.74950  0.56550  1.0000
  C   C82       1.0  0.72580  0.74950  0.93450  1.0000
  C   C83       1.0  0.77420  0.24950  0.56550  1.0000
  C   C84       1.0  0.22580  0.24950  0.93450  1.0000
  C   C85       1.0  0.72580  0.25050  0.43450  1.0000
  C   C86       1.0  0.27420  0.25050  0.06550  1.0000
  C   C87       1.0  0.22580  0.75050  0.43450  1.0000
  C   C88       1.0  0.77420  0.75050  0.06550  1.0000
  H   H33       1.0  0.29030  0.74960  0.60910  1.0000
  H   H34       1.0  0.70970  0.74960  0.89090  1.0000
  H   H35       1.0  0.79030  0.24960  0.60910  1.0000
  H   H36       1.0  0.20970  0.24960  0.89090  1.0000
  H   H37       1.0  0.70970  0.25040  0.39090  1.0000
  H   H38       1.0  0.29030  0.25040  0.10910  1.0000
  H   H39       1.0  0.20970  0.75040  0.39090  1.0000
  H   H40       1.0  0.79030  0.75040  0.10910  1.0000
  C   C89       1.0  0.24928  0.86250  0.45270  1.0000
  C   C90       1.0  0.75072  0.86250  0.04730  1.0000
  C   C91       1.0  0.74928  0.36250  0.45270  1.0000
  C   C92       1.0  0.25072  0.36250  0.04730  1.0000
  C   C93       1.0  0.75072  0.13750  0.54730  1.0000
  C   C94       1.0  0.24928  0.13750  0.95270  1.0000
  C   C95       1.0  0.25072  0.63750  0.54730  1.0000
  C   C96       1.0  0.74928  0.63750  0.95270  1.0000
  H   H41       1.0  0.24890  0.93790  0.42160  1.0000
  H   H42       1.0  0.75110  0.93790  0.07840  1.0000
  H   H43       1.0  0.74890  0.43790  0.42160  1.0000
  H   H44       1.0  0.25110  0.43790  0.07840  1.0000
  H   H45       1.0  0.75110  0.06210  0.57840  1.0000
  H   H46       1.0  0.24890  0.06210  0.92160  1.0000
  H   H47       1.0  0.25110  0.56210  0.57840  1.0000
  H   H48       1.0  0.74890  0.56210  0.92160  1.0000
  C   C97       1.0  0.41510  0.07010  0.48840  1.0000
  C   C98       1.0  0.58490  0.07010  0.01160  1.0000
  C   C99       1.0  0.91510  0.57010  0.48840  1.0000
  C   C100      1.0  0.08490  0.57010  0.01160  1.0000
  C   C101      1.0  0.58490  0.92990  0.51160  1.0000
  C   C102      1.0  0.41510  0.92990  0.98840  1.0000
  C   C103      1.0  0.08490  0.42990  0.51160  1.0000
  C   C104      1.0  0.91510  0.42990  0.98840  1.0000
  C   C105      1.0  0.45914  0.03410  0.49230  1.0000
  C   C106      1.0  0.54086  0.03410  0.00770  1.0000
  C   C107      1.0  0.95914  0.53410  0.49230  1.0000
  C   C108      1.0  0.04086  0.53410  0.00770  1.0000
  C   C109      1.0  0.54086  0.96590  0.50770  1.0000
  C   C110      1.0  0.45914  0.96590  0.99230  1.0000
  C   C111      1.0  0.04086  0.46590  0.50770  1.0000
  C   C112      1.0  0.95914  0.46590  0.99230  1.0000
  C   C113      1.0  0.47390  0.93990  0.44600  1.0000
  C   C114      1.0  0.52610  0.93990  0.05400  1.0000
  C   C115      1.0  0.97390  0.43990  0.44600  1.0000
  C   C116      1.0  0.02610  0.43990  0.05400  1.0000
  C   C117      1.0  0.52610  0.06010  0.55400  1.0000
  C   C118      1.0  0.47390  0.06010  0.94600  1.0000
  C   C119      1.0  0.02610  0.56010  0.55400  1.0000
  C   C120      1.0  0.97390  0.56010  0.94600  1.0000
  H   H49       1.0  0.45700  0.90060  0.40930  1.0000
  H   H50       1.0  0.54300  0.90060  0.09070  1.0000
  H   H51       1.0  0.95700  0.40060  0.40930  1.0000
  H   H52       1.0  0.04300  0.40060  0.09070  1.0000
  H   H53       1.0  0.54300  0.09940  0.59070  1.0000
  H   H54       1.0  0.45700  0.09940  0.90930  1.0000
  H   H55       1.0  0.04300  0.59940  0.59070  1.0000
  H   H56       1.0  0.95700  0.59940  0.90930  1.0000
  C   C121      1.0  0.48560  0.09790  0.54630  1.0000
  C   C122      1.0  0.51440  0.09790  0.95370  1.0000
  C   C123      1.0  0.98560  0.59790  0.54630  1.0000
  C   C124      1.0  0.01440  0.59790  0.95370  1.0000
  C   C125      1.0  0.51440  0.90210  0.45370  1.0000
  C   C126      1.0  0.48560  0.90210  0.04630  1.0000
  C   C127      1.0  0.01440  0.40210  0.45370  1.0000
  C   C128      1.0  0.98560  0.40210  0.04630  1.0000
  H   H57       1.0  0.47590  0.16500  0.57680  1.0000
  H   H58       1.0  0.52410  0.16500  0.92320  1.0000
  H   H59       1.0  0.97590  0.66500  0.57680  1.0000
  H   H60       1.0  0.02410  0.66500  0.92320  1.0000
  H   H61       1.0  0.52410  0.83500  0.42320  1.0000
  H   H62       1.0  0.47590  0.83500  0.07680  1.0000
  H   H63       1.0  0.02410  0.33500  0.42320  1.0000
  H   H64       1.0  0.97590  0.33500  0.07680  1.0000
