data_image0
_chemical_formula_structural       U8O64C16H8C16H8C16H8C8H16C16H16C16H16C8
_chemical_formula_sum              "U8 O64 C96 H72"
_cell_length_a       8.986
_cell_length_b       17.7983
_cell_length_c       21.3159
_cell_angle_alpha    90
_cell_angle_beta     90
_cell_angle_gamma    90

_space_group_name_H-M_alt    "P 1"
_space_group_IT_number       1

loop_
  _space_group_symop_operation_xyz
  'x, y, z'

loop_
  _atom_site_type_symbol
  _atom_site_label
  _atom_site_symmetry_multiplicity
  _atom_site_fract_x
  _atom_site_fract_y
  _atom_site_fract_z
  _atom_site_occupancy
  U   U1        1.0  0.79449  0.65765  0.61580  1.0000
  U   U2        1.0  0.70551  0.34235  0.11580  1.0000
  U   U3        1.0  0.20551  0.15765  0.88420  1.0000
  U   U4        1.0  0.29449  0.84235  0.38420  1.0000
  U   U5        1.0  0.20551  0.34235  0.38420  1.0000
  U   U6        1.0  0.29449  0.65765  0.88420  1.0000
  U   U7        1.0  0.79449  0.84235  0.11580  1.0000
  U   U8        1.0  0.70551  0.15765  0.61580  1.0000
  O   O1        1.0  0.68960  0.73629  0.58939  1.0000
  O   O2        1.0  0.81040  0.26371  0.08939  1.0000
  O   O3        1.0  0.31040  0.23629  0.91061  1.0000
  O   O4        1.0  0.18960  0.76371  0.41061  1.0000
  O   O5        1.0  0.31040  0.26371  0.41061  1.0000
  O   O6        1.0  0.18960  0.73629  0.91061  1.0000
  O   O7        1.0  0.68960  0.76371  0.08939  1.0000
  O   O8        1.0  0.81040  0.23629  0.58939  1.0000
  O   O9        1.0  0.89780  0.57825  0.63985  1.0000
  O   O10       1.0  0.60220  0.42175  0.13985  1.0000
  O   O11       1.0  0.10220  0.07825  0.86015  1.0000
  O   O12       1.0  0.39780  0.92175  0.36015  1.0000
  O   O13       1.0  0.10220  0.42175  0.36015  1.0000
  O   O14       1.0  0.39780  0.57825  0.86015  1.0000
  O   O15       1.0  0.89780  0.92175  0.13985  1.0000
  O   O16       1.0  0.60220  0.07825  0.63985  1.0000
  O   O17       1.0  0.61890  0.63914  0.70023  1.0000
  O   O18       1.0  0.88110  0.36086  0.20023  1.0000
  O   O19       1.0  0.38110  0.13914  0.79977  1.0000
  O   O20       1.0  0.11890  0.86086  0.29977  1.0000
  O   O21       1.0  0.38110  0.36086  0.29977  1.0000
  O   O22       1.0  0.11890  0.63914  0.79977  1.0000
  O   O23       1.0  0.61890  0.86086  0.20023  1.0000
  O   O24       1.0  0.88110  0.13914  0.70023  1.0000
  O   O25       1.0  0.56180  0.58497  0.61143  1.0000
  O   O26       1.0  0.93820  0.41503  0.11143  1.0000
  O   O27       1.0  0.43820  0.08497  0.88857  1.0000
  O   O28       1.0  0.06180  0.91503  0.38857  1.0000
  O   O29       1.0  0.43820  0.41503  0.38857  1.0000
  O   O30       1.0  0.06180  0.58497  0.88857  1.0000
  O   O31       1.0  0.56180  0.91503  0.11143  1.0000
  O   O32       1.0  0.93820  0.08497  0.61143  1.0000
  O   O33       1.0  0.24180  0.39994  0.49041  1.0000
  O   O34       1.0  0.25820  0.60006  0.99041  1.0000
  O   O35       1.0  0.75820  0.89994  0.00959  1.0000
  O   O36       1.0  0.74180  0.10006  0.50959  1.0000
  O   O37       1.0  0.75820  0.60006  0.50959  1.0000
  O   O38       1.0  0.74180  0.39994  0.00959  1.0000
  O   O39       1.0  0.24180  0.10006  0.99041  1.0000
  O   O40       1.0  0.25820  0.89994  0.49041  1.0000
  O   O41       1.0  0.03960  0.33323  0.47596  1.0000
  O   O42       1.0  0.46040  0.66677  0.97596  1.0000
  O   O43       1.0  0.96040  0.83323  0.02404  1.0000
  O   O44       1.0  0.53960  0.16677  0.52404  1.0000
  O   O45       1.0  0.96040  0.66677  0.52404  1.0000
  O   O46       1.0  0.53960  0.33323  0.02404  1.0000
  O   O47       1.0  0.03960  0.16677  0.97596  1.0000
  O   O48       1.0  0.46040  0.83323  0.47596  1.0000
  O   O49       1.0  0.49620  0.24734  0.62959  1.0000
  O   O50       1.0  0.00380  0.75266  0.12959  1.0000
  O   O51       1.0  0.50380  0.74734  0.87041  1.0000
  O   O52       1.0  0.99620  0.25266  0.37041  1.0000
  O   O53       1.0  0.50380  0.75266  0.37041  1.0000
  O   O54       1.0  0.99620  0.24734  0.87041  1.0000
  O   O55       1.0  0.49620  0.25266  0.12959  1.0000
  O   O56       1.0  0.00380  0.74734  0.62959  1.0000
  O   O57       1.0  0.63570  0.22301  0.71112  1.0000
  O   O58       1.0  0.86430  0.77699  0.21112  1.0000
  O   O59       1.0  0.36430  0.72301  0.78888  1.0000
  O   O60       1.0  0.13570  0.27699  0.28888  1.0000
  O   O61       1.0  0.36430  0.77699  0.28888  1.0000
  O   O62       1.0  0.13570  0.22301  0.78888  1.0000
  O   O63       1.0  0.63570  0.27699  0.21112  1.0000
  O   O64       1.0  0.86430  0.72301  0.71112  1.0000
  C   C1        1.0  0.32840  0.50263  0.67917  1.0000
  C   C2        1.0  0.17160  0.49737  0.17917  1.0000
  C   C3        1.0  0.67160  0.00263  0.82083  1.0000
  C   C4        1.0  0.82840  0.99737  0.32083  1.0000
  C   C5        1.0  0.67160  0.49737  0.32083  1.0000
  C   C6        1.0  0.82840  0.50263  0.82083  1.0000
  C   C7        1.0  0.32840  0.99737  0.17917  1.0000
  C   C8        1.0  0.17160  0.00263  0.67917  1.0000
  C   C9        1.0  0.21890  0.48913  0.63533  1.0000
  C   C10       1.0  0.28110  0.51087  0.13533  1.0000
  C   C11       1.0  0.78110  0.98913  0.86467  1.0000
  C   C12       1.0  0.71890  0.01087  0.36467  1.0000
  C   C13       1.0  0.78110  0.51087  0.36467  1.0000
  C   C14       1.0  0.71890  0.48913  0.86467  1.0000
  C   C15       1.0  0.21890  0.01087  0.13533  1.0000
  C   C16       1.0  0.28110  0.98913  0.63533  1.0000
  H   H1        1.0  0.17360  0.53010  0.61410  1.0000
  H   H2        1.0  0.32640  0.46990  0.11410  1.0000
  H   H3        1.0  0.82640  0.03010  0.88590  1.0000
  H   H4        1.0  0.67360  0.96990  0.38590  1.0000
  H   H5        1.0  0.82640  0.46990  0.38590  1.0000
  H   H6        1.0  0.67360  0.53010  0.88590  1.0000
  H   H7        1.0  0.17360  0.96990  0.11410  1.0000
  H   H8        1.0  0.32640  0.03010  0.61410  1.0000
  C   C17       1.0  0.17370  0.41575  0.62171  1.0000
  C   C18       1.0  0.32630  0.58425  0.12171  1.0000
  C   C19       1.0  0.82630  0.91575  0.87829  1.0000
  C   C20       1.0  0.67370  0.08425  0.37829  1.0000
  C   C21       1.0  0.82630  0.58425  0.37829  1.0000
  C   C22       1.0  0.67370  0.41575  0.87829  1.0000
  C   C23       1.0  0.17370  0.08425  0.12171  1.0000
  C   C24       1.0  0.32630  0.91575  0.62171  1.0000
  C   C25       1.0  0.24100  0.35663  0.65293  1.0000
  C   C26       1.0  0.25900  0.64337  0.15293  1.0000
  C   C27       1.0  0.75900  0.85663  0.84707  1.0000
  C   C28       1.0  0.74100  0.14337  0.34707  1.0000
  C   C29       1.0  0.75900  0.64337  0.34707  1.0000
  C   C30       1.0  0.74100  0.35663  0.84707  1.0000
  C   C31       1.0  0.24100  0.14337  0.15293  1.0000
  C   C32       1.0  0.25900  0.85663  0.65293  1.0000
  H   H9        1.0  0.21000  0.30670  0.64420  1.0000
  H   H10       1.0  0.29000  0.69330  0.14420  1.0000
  H   H11       1.0  0.79000  0.80670  0.85580  1.0000
  H   H12       1.0  0.71000  0.19330  0.35580  1.0000
  H   H13       1.0  0.79000  0.69330  0.35580  1.0000
  H   H14       1.0  0.71000  0.30670  0.85580  1.0000
  H   H15       1.0  0.21000  0.19330  0.14420  1.0000
  H   H16       1.0  0.29000  0.80670  0.64420  1.0000
  C   C33       1.0  0.35320  0.36885  0.69690  1.0000
  C   C34       1.0  0.14680  0.63115  0.19690  1.0000
  C   C35       1.0  0.64680  0.86885  0.80310  1.0000
  C   C36       1.0  0.85320  0.13115  0.30310  1.0000
  C   C37       1.0  0.64680  0.63115  0.30310  1.0000
  C   C38       1.0  0.85320  0.36885  0.80310  1.0000
  C   C39       1.0  0.35320  0.13115  0.19690  1.0000
  C   C40       1.0  0.14680  0.86885  0.69690  1.0000
  C   C41       1.0  0.39550  0.44227  0.71025  1.0000
  C   C42       1.0  0.10450  0.55773  0.21025  1.0000
  C   C43       1.0  0.60450  0.94227  0.78975  1.0000
  C   C44       1.0  0.89550  0.05773  0.28975  1.0000
  C   C45       1.0  0.60450  0.55773  0.28975  1.0000
  C   C46       1.0  0.89550  0.44227  0.78975  1.0000
  C   C47       1.0  0.39550  0.05773  0.21025  1.0000
  C   C48       1.0  0.10450  0.94227  0.71025  1.0000
  H   H17       1.0  0.47060  0.45150  0.74070  1.0000
  H   H18       1.0  0.02940  0.54850  0.24070  1.0000
  H   H19       1.0  0.52940  0.95150  0.75930  1.0000
  H   H20       1.0  0.97060  0.04850  0.25930  1.0000
  H   H21       1.0  0.52940  0.54850  0.25930  1.0000
  H   H22       1.0  0.97060  0.45150  0.75930  1.0000
  H   H23       1.0  0.47060  0.04850  0.24070  1.0000
  H   H24       1.0  0.02940  0.95150  0.74070  1.0000
  C   C49       1.0  0.37730  0.58191  0.69493  1.0000
  C   C50       1.0  0.12270  0.41809  0.19493  1.0000
  C   C51       1.0  0.62270  0.08191  0.80507  1.0000
  C   C52       1.0  0.87730  0.91809  0.30507  1.0000
  C   C53       1.0  0.62270  0.41809  0.30507  1.0000
  C   C54       1.0  0.87730  0.58191  0.80507  1.0000
  C   C55       1.0  0.37730  0.91809  0.19493  1.0000
  C   C56       1.0  0.12270  0.08191  0.69493  1.0000
  H   H25       1.0  0.30190  0.61770  0.67900  1.0000
  H   H26       1.0  0.19810  0.38230  0.17900  1.0000
  H   H27       1.0  0.69810  0.11770  0.82100  1.0000
  H   H28       1.0  0.80190  0.88230  0.32100  1.0000
  H   H29       1.0  0.69810  0.38230  0.32100  1.0000
  H   H30       1.0  0.80190  0.61770  0.82100  1.0000
  H   H31       1.0  0.30190  0.88230  0.17900  1.0000
  H   H32       1.0  0.19810  0.11770  0.67900  1.0000
  H   H33       1.0  0.38160  0.58740  0.74110  1.0000
  H   H34       1.0  0.11840  0.41260  0.24110  1.0000
  H   H35       1.0  0.61840  0.08740  0.75890  1.0000
  H   H36       1.0  0.88160  0.91260  0.25890  1.0000
  H   H37       1.0  0.61840  0.41260  0.25890  1.0000
  H   H38       1.0  0.88160  0.58740  0.75890  1.0000
  H   H39       1.0  0.38160  0.91260  0.24110  1.0000
  H   H40       1.0  0.11840  0.08740  0.74110  1.0000
  C   C57       1.0  0.52730  0.60218  0.66765  1.0000
  C   C58       1.0  0.97270  0.39782  0.16765  1.0000
  C   C59       1.0  0.47270  0.10218  0.83235  1.0000
  C   C60       1.0  0.02730  0.89782  0.33235  1.0000
  C   C61       1.0  0.47270  0.39782  0.33235  1.0000
  C   C62       1.0  0.02730  0.60218  0.83235  1.0000
  C   C63       1.0  0.52730  0.89782  0.16765  1.0000
  C   C64       1.0  0.97270  0.10218  0.66765  1.0000
  C   C65       1.0  0.05560  0.40061  0.57312  1.0000
  C   C66       1.0  0.44440  0.59939  0.07312  1.0000
  C   C67       1.0  0.94440  0.90061  0.92688  1.0000
  C   C68       1.0  0.55560  0.09939  0.42688  1.0000
  C   C69       1.0  0.94440  0.59939  0.42688  1.0000
  C   C70       1.0  0.55560  0.40061  0.92688  1.0000
  C   C71       1.0  0.05560  0.09939  0.07312  1.0000
  C   C72       1.0  0.44440  0.90061  0.57312  1.0000
  H   H41       1.0  0.99560  0.44680  0.56730  1.0000
  H   H42       1.0  0.50440  0.55320  0.06730  1.0000
  H   H43       1.0  0.00440  0.94680  0.93270  1.0000
  H   H44       1.0  0.49560  0.05320  0.43270  1.0000
  H   H45       1.0  0.00440  0.55320  0.43270  1.0000
  H   H46       1.0  0.49560  0.44680  0.93270  1.0000
  H   H47       1.0  0.99560  0.05320  0.06730  1.0000
  H   H48       1.0  0.50440  0.94680  0.56730  1.0000
  H   H49       1.0  0.98830  0.36090  0.58910  1.0000
  H   H50       1.0  0.51170  0.63910  0.08910  1.0000
  H   H51       1.0  0.01170  0.86090  0.91090  1.0000
  H   H52       1.0  0.48830  0.13910  0.41090  1.0000
  H   H53       1.0  0.01170  0.63910  0.41090  1.0000
  H   H54       1.0  0.48830  0.36090  0.91090  1.0000
  H   H55       1.0  0.98830  0.13910  0.08910  1.0000
  H   H56       1.0  0.51170  0.86090  0.58910  1.0000
  C   C73       1.0  0.11610  0.37638  0.51027  1.0000
  C   C74       1.0  0.38390  0.62362  0.01027  1.0000
  C   C75       1.0  0.88390  0.87638  0.98973  1.0000
  C   C76       1.0  0.61610  0.12362  0.48973  1.0000
  C   C77       1.0  0.88390  0.62362  0.48973  1.0000
  C   C78       1.0  0.61610  0.37638  0.98973  1.0000
  C   C79       1.0  0.11610  0.12362  0.01027  1.0000
  C   C80       1.0  0.38390  0.87638  0.51027  1.0000
  C   C81       1.0  0.42840  0.30390  0.72947  1.0000
  C   C82       1.0  0.07160  0.69610  0.22947  1.0000
  C   C83       1.0  0.57160  0.80390  0.77053  1.0000
  C   C84       1.0  0.92840  0.19610  0.27053  1.0000
  C   C85       1.0  0.57160  0.69610  0.27053  1.0000
  C   C86       1.0  0.92840  0.30390  0.77053  1.0000
  C   C87       1.0  0.42840  0.19610  0.22947  1.0000
  C   C88       1.0  0.07160  0.80390  0.72947  1.0000
  H   H57       1.0  0.49020  0.32390  0.76410  1.0000
  H   H58       1.0  0.00980  0.67610  0.26410  1.0000
  H   H59       1.0  0.50980  0.82390  0.73590  1.0000
  H   H60       1.0  0.99020  0.17610  0.23590  1.0000
  H   H61       1.0  0.50980  0.67610  0.23590  1.0000
  H   H62       1.0  0.99020  0.32390  0.73590  1.0000
  H   H63       1.0  0.49020  0.17610  0.26410  1.0000
  H   H64       1.0  0.00980  0.82390  0.76410  1.0000
  H   H65       1.0  0.35090  0.27150  0.74830  1.0000
  H   H66       1.0  0.14910  0.72850  0.24830  1.0000
  H   H67       1.0  0.64910  0.77150  0.75170  1.0000
  H   H68       1.0  0.85090  0.22850  0.25170  1.0000
  H   H69       1.0  0.64910  0.72850  0.25170  1.0000
  H   H70       1.0  0.85090  0.27150  0.75170  1.0000
  H   H71       1.0  0.35090  0.22850  0.24830  1.0000
  H   H72       1.0  0.14910  0.77150  0.74830  1.0000
  C   C89       1.0  0.52500  0.25652  0.68796  1.0000
  C   C90       1.0  0.97500  0.74348  0.18796  1.0000
  C   C91       1.0  0.47500  0.75652  0.81204  1.0000
  C   C92       1.0  0.02500  0.24348  0.31204  1.0000
  C   C93       1.0  0.47500  0.74348  0.31204  1.0000
  C   C94       1.0  0.02500  0.25652  0.81204  1.0000
  C   C95       1.0  0.52500  0.24348  0.18796  1.0000
  C   C96       1.0  0.97500  0.75652  0.68796  1.0000
