data_image0
_chemical_formula_structural       Zn4O16C32H8C8H8C16H8C8O16N8O24H16
_chemical_formula_sum              "Zn4 O56 C64 H40 N8"
_cell_length_a       22.954
_cell_length_b       6.799
_cell_length_c       13.026
_cell_angle_alpha    90
_cell_angle_beta     95.8
_cell_angle_gamma    90

_space_group_name_H-M_alt    "P 1"
_space_group_IT_number       1

loop_
  _space_group_symop_operation_xyz
  'x, y, z'

loop_
  _atom_site_type_symbol
  _atom_site_label
  _atom_site_symmetry_multiplicity
  _atom_site_fract_x
  _atom_site_fract_y
  _atom_site_fract_z
  _atom_site_occupancy
  Zn  Zn1       1.0  0.00000  0.95993  0.25000  1.0000
  Zn  Zn2       1.0  0.50000  0.45993  0.25000  1.0000
  Zn  Zn3       1.0  0.00000  0.04007  0.75000  1.0000
  Zn  Zn4       1.0  0.50000  0.54007  0.75000  1.0000
  O   O1        1.0  0.06746  0.15976  0.28146  1.0000
  O   O2        1.0  0.93254  0.15976  0.21854  1.0000
  O   O3        1.0  0.56746  0.65976  0.28146  1.0000
  O   O4        1.0  0.43254  0.65976  0.21854  1.0000
  O   O5        1.0  0.93254  0.84024  0.71854  1.0000
  O   O6        1.0  0.06746  0.84024  0.78146  1.0000
  O   O7        1.0  0.43254  0.34024  0.71854  1.0000
  O   O8        1.0  0.56746  0.34024  0.78146  1.0000
  O   O9        1.0  0.04327  0.32698  0.41938  1.0000
  O   O10       1.0  0.95673  0.32698  0.08062  1.0000
  O   O11       1.0  0.54327  0.82698  0.41938  1.0000
  O   O12       1.0  0.45673  0.82698  0.08062  1.0000
  O   O13       1.0  0.95673  0.67302  0.58062  1.0000
  O   O14       1.0  0.04327  0.67302  0.91938  1.0000
  O   O15       1.0  0.45673  0.17302  0.58062  1.0000
  O   O16       1.0  0.54327  0.17302  0.91938  1.0000
  C   C1        1.0  0.07704  0.28010  0.35418  1.0000
  C   C2        1.0  0.92296  0.28010  0.14582  1.0000
  C   C3        1.0  0.57704  0.78010  0.35418  1.0000
  C   C4        1.0  0.42296  0.78010  0.14582  1.0000
  C   C5        1.0  0.92296  0.71990  0.64582  1.0000
  C   C6        1.0  0.07704  0.71990  0.85418  1.0000
  C   C7        1.0  0.42296  0.21990  0.64582  1.0000
  C   C8        1.0  0.57704  0.21990  0.85418  1.0000
  C   C9        1.0  0.13700  0.37640  0.36397  1.0000
  C   C10       1.0  0.86300  0.37640  0.13603  1.0000
  C   C11       1.0  0.63700  0.87640  0.36397  1.0000
  C   C12       1.0  0.36300  0.87640  0.13603  1.0000
  C   C13       1.0  0.86300  0.62360  0.63603  1.0000
  C   C14       1.0  0.13700  0.62360  0.86397  1.0000
  C   C15       1.0  0.36300  0.12360  0.63603  1.0000
  C   C16       1.0  0.63700  0.12360  0.86397  1.0000
  C   C17       1.0  0.14380  0.57840  0.38360  1.0000
  C   C18       1.0  0.85620  0.57840  0.11640  1.0000
  C   C19       1.0  0.64380  0.07840  0.38360  1.0000
  C   C20       1.0  0.35620  0.07840  0.11640  1.0000
  C   C21       1.0  0.85620  0.42160  0.61640  1.0000
  C   C22       1.0  0.14380  0.42160  0.88360  1.0000
  C   C23       1.0  0.35620  0.92160  0.61640  1.0000
  C   C24       1.0  0.64380  0.92160  0.88360  1.0000
  C   C25       1.0  0.19992  0.65960  0.39535  1.0000
  C   C26       1.0  0.80008  0.65960  0.10465  1.0000
  C   C27       1.0  0.69992  0.15960  0.39535  1.0000
  C   C28       1.0  0.30008  0.15960  0.10465  1.0000
  C   C29       1.0  0.80008  0.34040  0.60465  1.0000
  C   C30       1.0  0.19992  0.34040  0.89535  1.0000
  C   C31       1.0  0.30008  0.84040  0.60465  1.0000
  C   C32       1.0  0.69992  0.84040  0.89535  1.0000
  H   H1        1.0  0.20440  0.79370  0.40810  1.0000
  H   H2        1.0  0.79560  0.79370  0.09190  1.0000
  H   H3        1.0  0.70440  0.29370  0.40810  1.0000
  H   H4        1.0  0.29560  0.29370  0.09190  1.0000
  H   H5        1.0  0.79560  0.20630  0.59190  1.0000
  H   H6        1.0  0.20440  0.20630  0.90810  1.0000
  H   H7        1.0  0.29560  0.70630  0.59190  1.0000
  H   H8        1.0  0.70440  0.70630  0.90810  1.0000
  C   C33       1.0  0.24903  0.54430  0.38837  1.0000
  C   C34       1.0  0.75097  0.54430  0.11163  1.0000
  C   C35       1.0  0.74903  0.04430  0.38837  1.0000
  C   C36       1.0  0.25097  0.04430  0.11163  1.0000
  C   C37       1.0  0.75097  0.45570  0.61163  1.0000
  C   C38       1.0  0.24903  0.45570  0.88837  1.0000
  C   C39       1.0  0.25097  0.95570  0.61163  1.0000
  C   C40       1.0  0.74903  0.95570  0.88837  1.0000
  H   H9        1.0  0.28640  0.59900  0.39590  1.0000
  H   H10       1.0  0.71360  0.59900  0.10410  1.0000
  H   H11       1.0  0.78640  0.09900  0.39590  1.0000
  H   H12       1.0  0.21360  0.09900  0.10410  1.0000
  H   H13       1.0  0.71360  0.40100  0.60410  1.0000
  H   H14       1.0  0.28640  0.40100  0.89590  1.0000
  H   H15       1.0  0.21360  0.90100  0.60410  1.0000
  H   H16       1.0  0.78640  0.90100  0.89590  1.0000
  C   C41       1.0  0.24099  0.34580  0.36985  1.0000
  C   C42       1.0  0.75901  0.34580  0.13015  1.0000
  C   C43       1.0  0.74099  0.84580  0.36985  1.0000
  C   C44       1.0  0.25901  0.84580  0.13015  1.0000
  C   C45       1.0  0.75901  0.65420  0.63015  1.0000
  C   C46       1.0  0.24099  0.65420  0.86985  1.0000
  C   C47       1.0  0.25901  0.15420  0.63015  1.0000
  C   C48       1.0  0.74099  0.15420  0.86985  1.0000
  C   C49       1.0  0.18618  0.25960  0.35628  1.0000
  C   C50       1.0  0.81382  0.25960  0.14372  1.0000
  C   C51       1.0  0.68618  0.75960  0.35628  1.0000
  C   C52       1.0  0.31382  0.75960  0.14372  1.0000
  C   C53       1.0  0.81382  0.74040  0.64372  1.0000
  C   C54       1.0  0.18618  0.74040  0.85628  1.0000
  C   C55       1.0  0.31382  0.24040  0.64372  1.0000
  C   C56       1.0  0.68618  0.24040  0.85628  1.0000
  H   H17       1.0  0.18220  0.12590  0.34230  1.0000
  H   H18       1.0  0.81780  0.12590  0.15770  1.0000
  H   H19       1.0  0.68220  0.62590  0.34230  1.0000
  H   H20       1.0  0.31780  0.62590  0.15770  1.0000
  H   H21       1.0  0.81780  0.87410  0.65770  1.0000
  H   H22       1.0  0.18220  0.87410  0.84230  1.0000
  H   H23       1.0  0.31780  0.37410  0.65770  1.0000
  H   H24       1.0  0.68220  0.37410  0.84230  1.0000
  C   C57       1.0  0.09185  0.71600  0.38662  1.0000
  C   C58       1.0  0.90815  0.71600  0.11338  1.0000
  C   C59       1.0  0.59185  0.21600  0.38662  1.0000
  C   C60       1.0  0.40815  0.21600  0.11338  1.0000
  C   C61       1.0  0.90815  0.28400  0.61338  1.0000
  C   C62       1.0  0.09185  0.28400  0.88662  1.0000
  C   C63       1.0  0.40815  0.78400  0.61338  1.0000
  C   C64       1.0  0.59185  0.78400  0.88662  1.0000
  O   O17       1.0  0.05823  0.72566  0.30364  1.0000
  O   O18       1.0  0.94177  0.72566  0.19636  1.0000
  O   O19       1.0  0.55823  0.22566  0.30364  1.0000
  O   O20       1.0  0.44177  0.22566  0.19636  1.0000
  O   O21       1.0  0.94177  0.27434  0.69636  1.0000
  O   O22       1.0  0.05823  0.27434  0.80364  1.0000
  O   O23       1.0  0.44177  0.77434  0.69636  1.0000
  O   O24       1.0  0.55823  0.77434  0.80364  1.0000
  O   O25       1.0  0.08742  0.81000  0.46661  1.0000
  O   O26       1.0  0.91258  0.81000  0.03339  1.0000
  O   O27       1.0  0.58742  0.31000  0.46661  1.0000
  O   O28       1.0  0.41258  0.31000  0.03339  1.0000
  O   O29       1.0  0.91258  0.19000  0.53339  1.0000
  O   O30       1.0  0.08742  0.19000  0.96661  1.0000
  O   O31       1.0  0.41258  0.69000  0.53339  1.0000
  O   O32       1.0  0.58742  0.69000  0.96661  1.0000
  N   N1        1.0  0.29312  0.22180  0.36478  1.0000
  N   N2        1.0  0.70688  0.22180  0.13522  1.0000
  N   N3        1.0  0.79312  0.72180  0.36478  1.0000
  N   N4        1.0  0.20688  0.72180  0.13522  1.0000
  N   N5        1.0  0.70688  0.77820  0.63522  1.0000
  N   N6        1.0  0.29312  0.77820  0.86478  1.0000
  N   N7        1.0  0.20688  0.27820  0.63522  1.0000
  N   N8        1.0  0.79312  0.27820  0.86478  1.0000
  O   O33       1.0  0.28750  0.04350  0.36283  1.0000
  O   O34       1.0  0.71250  0.04350  0.13717  1.0000
  O   O35       1.0  0.78750  0.54350  0.36283  1.0000
  O   O36       1.0  0.21250  0.54350  0.13717  1.0000
  O   O37       1.0  0.71250  0.95650  0.63717  1.0000
  O   O38       1.0  0.28750  0.95650  0.86283  1.0000
  O   O39       1.0  0.21250  0.45650  0.63717  1.0000
  O   O40       1.0  0.78750  0.45650  0.86283  1.0000
  O   O41       1.0  0.33995  0.30420  0.36132  1.0000
  O   O42       1.0  0.66005  0.30420  0.13868  1.0000
  O   O43       1.0  0.83995  0.80420  0.36132  1.0000
  O   O44       1.0  0.16005  0.80420  0.13868  1.0000
  O   O45       1.0  0.66005  0.69580  0.63868  1.0000
  O   O46       1.0  0.33995  0.69580  0.86132  1.0000
  O   O47       1.0  0.16005  0.19580  0.63868  1.0000
  O   O48       1.0  0.83995  0.19580  0.86132  1.0000
  O   O49       1.0  0.96769  0.92908  0.39411  1.0000
  O   O50       1.0  0.03231  0.92908  0.10589  1.0000
  O   O51       1.0  0.46769  0.42908  0.39411  1.0000
  O   O52       1.0  0.53231  0.42908  0.10589  1.0000
  O   O53       1.0  0.03231  0.07092  0.60589  1.0000
  O   O54       1.0  0.96769  0.07092  0.89411  1.0000
  O   O55       1.0  0.53231  0.57092  0.60589  1.0000
  O   O56       1.0  0.46769  0.57092  0.89411  1.0000
  H   H25       1.0  0.99910  0.90260  0.43080  1.0000
  H   H26       1.0  0.00090  0.90260  0.06920  1.0000
  H   H27       1.0  0.49910  0.40260  0.43080  1.0000
  H   H28       1.0  0.50090  0.40260  0.06920  1.0000
  H   H29       1.0  0.00090  0.09740  0.56920  1.0000
  H   H30       1.0  0.99910  0.09740  0.93080  1.0000
  H   H31       1.0  0.50090  0.59740  0.56920  1.0000
  H   H32       1.0  0.49910  0.59740  0.93080  1.0000
  H   H33       1.0  0.94940  0.98390  0.43890  1.0000
  H   H34       1.0  0.05060  0.98390  0.06110  1.0000
  H   H35       1.0  0.44940  0.48390  0.43890  1.0000
  H   H36       1.0  0.55060  0.48390  0.06110  1.0000
  H   H37       1.0  0.05060  0.01610  0.56110  1.0000
  H   H38       1.0  0.94940  0.01610  0.93890  1.0000
  H   H39       1.0  0.55060  0.51610  0.56110  1.0000
  H   H40       1.0  0.44940  0.51610  0.93890  1.0000
