data_image0
_chemical_formula_structural       C6H2C2H2C4H2C2H2C2H4C4H2C2H2C4H2C2H2C8H2C2H2C4H2C2H2C2H4C4H2C2H2C4H2C2H2Cd2O12C2O4
_chemical_formula_sum              "C60 H40 Cd2 O16"
_cell_length_a       12.6855
_cell_length_b       13.4334
_cell_length_c       15.2637
_cell_angle_alpha    77.18
_cell_angle_beta     89.964
_cell_angle_gamma    65.37

_space_group_name_H-M_alt    "P 1"
_space_group_IT_number       1

loop_
  _space_group_symop_operation_xyz
  'x, y, z'

loop_
  _atom_site_type_symbol
  _atom_site_label
  _atom_site_symmetry_multiplicity
  _atom_site_fract_x
  _atom_site_fract_y
  _atom_site_fract_z
  _atom_site_occupancy
  C   C1        1.0  0.51780  0.25290  0.91230  1.0000
  C   C2        1.0  0.48220  0.74710  0.08770  1.0000
  C   C3        1.0  0.61070  0.14470  0.96920  1.0000
  C   C4        1.0  0.38930  0.85530  0.03080  1.0000
  C   C5        1.0  0.72670  0.11330  0.95840  1.0000
  C   C6        1.0  0.27330  0.88670  0.04160  1.0000
  H   H1        1.0  0.74920  0.16170  0.91770  1.0000
  H   H2        1.0  0.25080  0.83830  0.08230  1.0000
  C   C7        1.0  0.81070  0.01080  0.00730  1.0000
  C   C8        1.0  0.18930  0.98920  0.99270  1.0000
  H   H3        1.0  0.88860  0.99150  0.99850  1.0000
  H   H4        1.0  0.11140  0.00850  0.00150  1.0000
  C   C9        1.0  0.78200  0.93610  0.06890  1.0000
  C   C10       1.0  0.21800  0.06390  0.93110  1.0000
  C   C11       1.0  0.66540  0.96860  0.07940  1.0000
  C   C12       1.0  0.33460  0.03140  0.92060  1.0000
  H   H5        1.0  0.64310  0.92060  0.12070  1.0000
  H   H6        1.0  0.35690  0.07940  0.87930  1.0000
  C   C13       1.0  0.58060  0.07050  0.03030  1.0000
  C   C14       1.0  0.41940  0.92950  0.96970  1.0000
  H   H7        1.0  0.50260  0.08930  0.03850  1.0000
  H   H8        1.0  0.49740  0.91070  0.96150  1.0000
  C   C15       1.0  0.87250  0.82590  0.12440  1.0000
  C   C16       1.0  0.12750  0.17410  0.87560  1.0000
  H   H9        1.0  0.83370  0.78170  0.15580  1.0000
  H   H10       1.0  0.16630  0.21830  0.84420  1.0000
  H   H11       1.0  0.91360  0.84100  0.16960  1.0000
  H   H12       1.0  0.08640  0.15900  0.83040  1.0000
  C   C17       1.0  0.96060  0.75660  0.06940  1.0000
  C   C18       1.0  0.03940  0.24340  0.93060  1.0000
  C   C19       1.0  0.07030  0.75260  0.06840  1.0000
  C   C20       1.0  0.92970  0.24740  0.93160  1.0000
  H   H13       1.0  0.09050  0.79320  0.10190  1.0000
  H   H14       1.0  0.90950  0.20680  0.89810  1.0000
  C   C21       1.0  0.15100  0.69000  0.01900  1.0000
  C   C22       1.0  0.84900  0.31000  0.98100  1.0000
  H   H15       1.0  0.22420  0.69020  0.01860  1.0000
  H   H16       1.0  0.77580  0.30980  0.98140  1.0000
  C   C23       1.0  0.12510  0.62650  0.96970  1.0000
  C   C24       1.0  0.87490  0.37350  0.03030  1.0000
  C   C25       1.0  0.01420  0.63110  0.96980  1.0000
  C   C26       1.0  0.98580  0.36890  0.03020  1.0000
  H   H17       1.0  0.99360  0.59090  0.93620  1.0000
  H   H18       1.0  0.00640  0.40910  0.06380  1.0000
  C   C27       1.0  0.93300  0.69520  0.01980  1.0000
  C   C28       1.0  0.06700  0.30480  0.98020  1.0000
  H   H19       1.0  0.85910  0.69670  0.01970  1.0000
  H   H20       1.0  0.14090  0.30330  0.98030  1.0000
  C   C29       1.0  0.21480  0.55640  0.91750  1.0000
  C   C30       1.0  0.78520  0.44360  0.08250  1.0000
  C   C31       1.0  0.29210  0.31530  0.67830  1.0000
  C   C32       1.0  0.70790  0.68470  0.32170  1.0000
  C   C33       1.0  0.27190  0.25310  0.61340  1.0000
  C   C34       1.0  0.72810  0.74690  0.38660  1.0000
  C   C35       1.0  0.18080  0.22210  0.62050  1.0000
  C   C36       1.0  0.81920  0.77790  0.37950  1.0000
  H   H21       1.0  0.12920  0.24250  0.66360  1.0000
  H   H22       1.0  0.87080  0.75750  0.33640  1.0000
  C   C37       1.0  0.16590  0.16080  0.56380  1.0000
  C   C38       1.0  0.83410  0.83920  0.43620  1.0000
  H   H23       1.0  0.10450  0.13980  0.56940  1.0000
  H   H24       1.0  0.89550  0.86020  0.43060  1.0000
  C   C39       1.0  0.24110  0.13000  0.49890  1.0000
  C   C40       1.0  0.75890  0.87000  0.50110  1.0000
  C   C41       1.0  0.32930  0.16460  0.49070  1.0000
  C   C42       1.0  0.67070  0.83540  0.50930  1.0000
  H   H25       1.0  0.37900  0.14690  0.44600  1.0000
  H   H26       1.0  0.62100  0.85310  0.55400  1.0000
  C   C43       1.0  0.34570  0.22500  0.54730  1.0000
  C   C44       1.0  0.65430  0.77500  0.45270  1.0000
  H   H27       1.0  0.40640  0.24680  0.54110  1.0000
  H   H28       1.0  0.59360  0.75320  0.45890  1.0000
  C   C45       1.0  0.22610  0.05850  0.43870  1.0000
  C   C46       1.0  0.77390  0.94150  0.56130  1.0000
  H   H29       1.0  0.14760  0.09610  0.40800  1.0000
  H   H30       1.0  0.85240  0.90390  0.59200  1.0000
  H   H31       1.0  0.28020  0.05210  0.39300  1.0000
  H   H32       1.0  0.71980  0.94790  0.60700  1.0000
  C   C47       1.0  0.24730  0.94200  0.49230  1.0000
  C   C48       1.0  0.75270  0.05800  0.50770  1.0000
  C   C49       1.0  0.16440  0.90030  0.49040  1.0000
  C   C50       1.0  0.83560  0.09970  0.50960  1.0000
  H   H33       1.0  0.09500  0.94400  0.45320  1.0000
  H   H34       1.0  0.90500  0.05600  0.54680  1.0000
  C   C51       1.0  0.18240  0.79620  0.54210  1.0000
  C   C52       1.0  0.81760  0.20380  0.45790  1.0000
  H   H35       1.0  0.12490  0.77080  0.53930  1.0000
  H   H36       1.0  0.87510  0.22920  0.46070  1.0000
  C   C53       1.0  0.28450  0.72800  0.59850  1.0000
  C   C54       1.0  0.71550  0.27200  0.40150  1.0000
  C   C55       1.0  0.36800  0.76890  0.59820  1.0000
  C   C56       1.0  0.63200  0.23110  0.40180  1.0000
  H   H37       1.0  0.43830  0.72440  0.63420  1.0000
  H   H38       1.0  0.56170  0.27560  0.36580  1.0000
  C   C57       1.0  0.35020  0.87330  0.54640  1.0000
  C   C58       1.0  0.64980  0.12670  0.45360  1.0000
  H   H39       1.0  0.40860  0.89790  0.54780  1.0000
  H   H40       1.0  0.59140  0.10210  0.45220  1.0000
  Cd  Cd1       1.0  0.33748  0.42469  0.79425  1.0000
  Cd  Cd2       1.0  0.66252  0.57531  0.20575  1.0000
  O   O1        1.0  0.41530  0.26250  0.90910  1.0000
  O   O2        1.0  0.58470  0.73750  0.09090  1.0000
  O   O3        1.0  0.54670  0.32660  0.86970  1.0000
  O   O4        1.0  0.45330  0.67340  0.13030  1.0000
  O   O5        1.0  0.31740  0.54120  0.93010  1.0000
  O   O6        1.0  0.68260  0.45880  0.06990  1.0000
  O   O7        1.0  0.17900  0.51510  0.86300  1.0000
  O   O8        1.0  0.82100  0.48490  0.13700  1.0000
  O   O9        1.0  0.21530  0.35330  0.72904  1.0000
  O   O10       1.0  0.78470  0.64670  0.27096  1.0000
  O   O11       1.0  0.38660  0.32330  0.68050  1.0000
  O   O12       1.0  0.61340  0.67670  0.31950  1.0000
  C   C59       1.0  0.29880  0.61950  0.65950  1.0000
  C   C60       1.0  0.70120  0.38050  0.34050  1.0000
  O   O13       1.0  0.22110  0.58730  0.65630  1.0000
  O   O14       1.0  0.77890  0.41270  0.34370  1.0000
  O   O15       1.0  0.38760  0.56640  0.71630  1.0000
  O   O16       1.0  0.61240  0.43360  0.28370  1.0000
