data_image0
_chemical_formula_structural       Ni4O24C4O8C12H16
_chemical_formula_sum              "Ni4 O32 C16 H16"
_cell_length_a       6.879
_cell_length_b       22.363
_cell_length_c       9.522
_cell_angle_alpha    90
_cell_angle_beta     90.362
_cell_angle_gamma    90

_space_group_name_H-M_alt    "P 1"
_space_group_IT_number       1

loop_
  _space_group_symop_operation_xyz
  'x, y, z'

loop_
  _atom_site_type_symbol
  _atom_site_label
  _atom_site_symmetry_multiplicity
  _atom_site_fract_x
  _atom_site_fract_y
  _atom_site_fract_z
  _atom_site_occupancy
  Ni  Ni1       1.0  0.99864  0.25249  0.47017  1.0000
  Ni  Ni2       1.0  0.50136  0.75249  0.02983  1.0000
  Ni  Ni3       1.0  0.00136  0.74751  0.52983  1.0000
  Ni  Ni4       1.0  0.49864  0.24751  0.97017  1.0000
  O   O1        1.0  0.15230  0.20920  0.31409  1.0000
  O   O2        1.0  0.34770  0.70920  0.18591  1.0000
  O   O3        1.0  0.84770  0.79080  0.68591  1.0000
  O   O4        1.0  0.65230  0.29080  0.81409  1.0000
  O   O5        1.0  0.82620  0.29193  0.31976  1.0000
  O   O6        1.0  0.67380  0.79193  0.18024  1.0000
  O   O7        1.0  0.17380  0.70807  0.68024  1.0000
  O   O8        1.0  0.32620  0.20807  0.81976  1.0000
  O   O9        1.0  0.66910  0.28935  0.11595  1.0000
  O   O10       1.0  0.83090  0.78935  0.38405  1.0000
  O   O11       1.0  0.33090  0.71065  0.88405  1.0000
  O   O12       1.0  0.16910  0.21065  0.61595  1.0000
  O   O13       1.0  0.32680  0.20988  0.12040  1.0000
  O   O14       1.0  0.17320  0.70988  0.37960  1.0000
  O   O15       1.0  0.67320  0.79012  0.87960  1.0000
  O   O16       1.0  0.82680  0.29012  0.62040  1.0000
  O   O17       1.0  0.83920  0.17175  0.46957  1.0000
  O   O18       1.0  0.66080  0.67175  0.03043  1.0000
  O   O19       1.0  0.16080  0.82825  0.53043  1.0000
  O   O20       1.0  0.33920  0.32825  0.96957  1.0000
  O   O21       1.0  0.17300  0.32939  0.47605  1.0000
  O   O22       1.0  0.32700  0.82939  0.02395  1.0000
  O   O23       1.0  0.82700  0.67061  0.52395  1.0000
  O   O24       1.0  0.67300  0.17061  0.97605  1.0000
  C   C1        1.0  0.75000  0.26532  0.21820  1.0000
  C   C2        1.0  0.75000  0.76532  0.28180  1.0000
  C   C3        1.0  0.25000  0.73468  0.78180  1.0000
  C   C4        1.0  0.25000  0.23468  0.71820  1.0000
  O   O25       1.0  0.24150  0.42218  0.41100  1.0000
  O   O26       1.0  0.25850  0.92218  0.08900  1.0000
  O   O27       1.0  0.75850  0.57782  0.58900  1.0000
  O   O28       1.0  0.74150  0.07782  0.91100  1.0000
  O   O29       1.0  0.57200  0.11570  0.47730  1.0000
  O   O30       1.0  0.92800  0.61570  0.02270  1.0000
  O   O31       1.0  0.42800  0.88430  0.52270  1.0000
  O   O32       1.0  0.07200  0.38430  0.97730  1.0000
  C   C5        1.0  0.15780  0.37406  0.39620  1.0000
  C   C6        1.0  0.34220  0.87406  0.10380  1.0000
  C   C7        1.0  0.84220  0.62594  0.60380  1.0000
  C   C8        1.0  0.65780  0.12594  0.89620  1.0000
  C   C9        1.0  0.65980  0.16434  0.48460  1.0000
  C   C10       1.0  0.84020  0.66434  0.01540  1.0000
  C   C11       1.0  0.34020  0.83566  0.51540  1.0000
  C   C12       1.0  0.15980  0.33566  0.98460  1.0000
  C   C13       1.0  0.27550  0.23229  0.23340  1.0000
  C   C14       1.0  0.22450  0.73229  0.26660  1.0000
  C   C15       1.0  0.72450  0.76771  0.76660  1.0000
  C   C16       1.0  0.77550  0.26771  0.73340  1.0000
  H   H1        1.0  0.75800  0.22620  0.21800  1.0000
  H   H2        1.0  0.74200  0.72620  0.28200  1.0000
  H   H3        1.0  0.24200  0.77380  0.78200  1.0000
  H   H4        1.0  0.25800  0.27380  0.71800  1.0000
  H   H5        1.0  0.08500  0.37050  0.32300  1.0000
  H   H6        1.0  0.41500  0.87050  0.17700  1.0000
  H   H7        1.0  0.91500  0.62950  0.67700  1.0000
  H   H8        1.0  0.58500  0.12950  0.82300  1.0000
  H   H9        1.0  0.58200  0.19700  0.50000  1.0000
  H   H10       1.0  0.91800  0.69700  0.00000  1.0000
  H   H11       1.0  0.41800  0.80300  0.50000  1.0000
  H   H12       1.0  0.08200  0.30300  0.00000  1.0000
  H   H13       1.0  0.32000  0.26790  0.25300  1.0000
  H   H14       1.0  0.18000  0.76790  0.24700  1.0000
  H   H15       1.0  0.68000  0.73210  0.74700  1.0000
  H   H16       1.0  0.82000  0.23210  0.75300  1.0000
