data_image0
_chemical_formula_structural       Co4O32C4H4C4H4C4H4C4H4
_chemical_formula_sum              "Co4 O32 C16 H16"
_cell_length_a       6.866
_cell_length_b       22.354
_cell_length_c       9.582
_cell_angle_alpha    90
_cell_angle_beta     90.272
_cell_angle_gamma    90

_space_group_name_H-M_alt    "P 1"
_space_group_IT_number       1

loop_
  _space_group_symop_operation_xyz
  'x, y, z'

loop_
  _atom_site_type_symbol
  _atom_site_label
  _atom_site_symmetry_multiplicity
  _atom_site_fract_x
  _atom_site_fract_y
  _atom_site_fract_z
  _atom_site_occupancy
  Co  Co1       1.0  0.50239  0.24724  0.47243  1.0000
  Co  Co2       1.0  0.99761  0.74724  0.02757  1.0000
  Co  Co3       1.0  0.49761  0.75276  0.52757  1.0000
  Co  Co4       1.0  0.00239  0.25276  0.97243  1.0000
  O   O1        1.0  0.65560  0.29129  0.31580  1.0000
  O   O2        1.0  0.84440  0.79129  0.18420  1.0000
  O   O3        1.0  0.34440  0.70871  0.68420  1.0000
  O   O4        1.0  0.15560  0.20871  0.81580  1.0000
  O   O5        1.0  0.32860  0.20714  0.32080  1.0000
  O   O6        1.0  0.17140  0.70714  0.17920  1.0000
  O   O7        1.0  0.67140  0.79286  0.67920  1.0000
  O   O8        1.0  0.82860  0.29286  0.82080  1.0000
  O   O9        1.0  0.34070  0.32920  0.47010  1.0000
  O   O10       1.0  0.15930  0.82920  0.02990  1.0000
  O   O11       1.0  0.65930  0.67080  0.52990  1.0000
  O   O12       1.0  0.84070  0.17080  0.97010  1.0000
  O   O13       1.0  0.17540  0.21033  0.11840  1.0000
  O   O14       1.0  0.32460  0.71033  0.38160  1.0000
  O   O15       1.0  0.82460  0.78967  0.88160  1.0000
  O   O16       1.0  0.67540  0.28967  0.61840  1.0000
  O   O17       1.0  0.68010  0.16875  0.47900  1.0000
  O   O18       1.0  0.81990  0.66875  0.02100  1.0000
  O   O19       1.0  0.31990  0.83125  0.52100  1.0000
  O   O20       1.0  0.18010  0.33125  0.97900  1.0000
  O   O21       1.0  0.83080  0.29055  0.12450  1.0000
  O   O22       1.0  0.66920  0.79055  0.37550  1.0000
  O   O23       1.0  0.16920  0.70945  0.87550  1.0000
  O   O24       1.0  0.33080  0.20945  0.62450  1.0000
  O   O25       1.0  0.74830  0.07590  0.41200  1.0000
  O   O26       1.0  0.75170  0.57590  0.08800  1.0000
  O   O27       1.0  0.25170  0.92410  0.58800  1.0000
  O   O28       1.0  0.24830  0.42410  0.91200  1.0000
  O   O29       1.0  0.07460  0.38590  0.47940  1.0000
  O   O30       1.0  0.42540  0.88590  0.02060  1.0000
  O   O31       1.0  0.92540  0.61410  0.52060  1.0000
  O   O32       1.0  0.57460  0.11410  0.97940  1.0000
  C   C1        1.0  0.25540  0.23420  0.22110  1.0000
  C   C2        1.0  0.24460  0.73420  0.27890  1.0000
  C   C3        1.0  0.74460  0.76580  0.77890  1.0000
  C   C4        1.0  0.75540  0.26580  0.72110  1.0000
  H   H1        1.0  0.25600  0.27460  0.22200  1.0000
  H   H2        1.0  0.24400  0.77460  0.27800  1.0000
  H   H3        1.0  0.74400  0.72540  0.77800  1.0000
  H   H4        1.0  0.75600  0.22540  0.72200  1.0000
  C   C5        1.0  0.66590  0.12420  0.39830  1.0000
  C   C6        1.0  0.83410  0.62420  0.10170  1.0000
  C   C7        1.0  0.33410  0.87580  0.60170  1.0000
  C   C8        1.0  0.16590  0.37580  0.89830  1.0000
  H   H5        1.0  0.57700  0.13700  0.33700  1.0000
  H   H6        1.0  0.92300  0.63700  0.16300  1.0000
  H   H7        1.0  0.42300  0.86300  0.66300  1.0000
  H   H8        1.0  0.07700  0.36300  0.83700  1.0000
  C   C9        1.0  0.16320  0.33680  0.48680  1.0000
  C   C10       1.0  0.33680  0.83680  0.01320  1.0000
  C   C11       1.0  0.83680  0.66320  0.51320  1.0000
  C   C12       1.0  0.66320  0.16320  0.98680  1.0000
  H   H9        1.0  0.07700  0.30700  0.50300  1.0000
  H   H10       1.0  0.42300  0.80700  0.99700  1.0000
  H   H11       1.0  0.92300  0.69300  0.49700  1.0000
  H   H12       1.0  0.57700  0.19300  0.00300  1.0000
  C   C13       1.0  0.77770  0.26880  0.23570  1.0000
  C   C14       1.0  0.72230  0.76880  0.26430  1.0000
  C   C15       1.0  0.22230  0.73120  0.76430  1.0000
  C   C16       1.0  0.27770  0.23120  0.73570  1.0000
  H   H13       1.0  0.81800  0.23150  0.26500  1.0000
  H   H14       1.0  0.68200  0.73150  0.23500  1.0000
  H   H15       1.0  0.18200  0.76850  0.73500  1.0000
  H   H16       1.0  0.31800  0.26850  0.76500  1.0000
