data_image0
_chemical_formula_structural       Mn2O16C4H4C4H4
_chemical_formula_sum              "Mn2 O16 C8 H8"
_cell_length_a       8.9246
_cell_length_b       8.702
_cell_length_c       9.2303
_cell_angle_alpha    90
_cell_angle_beta     98.405
_cell_angle_gamma    90

_space_group_name_H-M_alt    "P 1"
_space_group_IT_number       1

loop_
  _space_group_symop_operation_xyz
  'x, y, z'

loop_
  _atom_site_type_symbol
  _atom_site_label
  _atom_site_symmetry_multiplicity
  _atom_site_fract_x
  _atom_site_fract_y
  _atom_site_fract_z
  _atom_site_occupancy
  Mn  Mn1       1.0  0.50000  0.50000  0.00000  1.0000
  Mn  Mn2       1.0  0.50000  0.00000  0.50000  1.0000
  O   O1        1.0  0.03568  0.32650  0.92177  1.0000
  O   O2        1.0  0.96432  0.82650  0.57823  1.0000
  O   O3        1.0  0.96432  0.67350  0.07823  1.0000
  O   O4        1.0  0.03568  0.17350  0.42177  1.0000
  O   O5        1.0  0.56123  0.30275  0.14296  1.0000
  O   O6        1.0  0.43877  0.80275  0.35704  1.0000
  O   O7        1.0  0.43877  0.69725  0.85704  1.0000
  O   O8        1.0  0.56123  0.19725  0.64296  1.0000
  O   O9        1.0  0.57092  0.12845  0.32088  1.0000
  O   O10       1.0  0.42908  0.62845  0.17912  1.0000
  O   O11       1.0  0.42908  0.87155  0.67912  1.0000
  O   O12       1.0  0.57092  0.37155  0.82088  1.0000
  O   O13       1.0  0.26659  0.42810  0.92222  1.0000
  O   O14       1.0  0.73341  0.92810  0.57778  1.0000
  O   O15       1.0  0.73341  0.57190  0.07778  1.0000
  O   O16       1.0  0.26659  0.07190  0.42222  1.0000
  C   C1        1.0  0.51026  0.23905  0.24806  1.0000
  C   C2        1.0  0.48974  0.73905  0.25194  1.0000
  C   C3        1.0  0.48974  0.76095  0.75194  1.0000
  C   C4        1.0  0.51026  0.26095  0.74806  1.0000
  H   H1        1.0  0.41710  0.27820  0.27540  1.0000
  H   H2        1.0  0.58290  0.77820  0.22460  1.0000
  H   H3        1.0  0.58290  0.72180  0.72460  1.0000
  H   H4        1.0  0.41710  0.22180  0.77540  1.0000
  C   C5        1.0  0.15949  0.37541  0.98351  1.0000
  C   C6        1.0  0.84051  0.87541  0.51649  1.0000
  C   C7        1.0  0.84051  0.62459  0.01649  1.0000
  C   C8        1.0  0.15949  0.12459  0.48351  1.0000
  H   H5        1.0  0.17670  0.37030  0.08990  1.0000
  H   H6        1.0  0.82330  0.87030  0.41010  1.0000
  H   H7        1.0  0.82330  0.62970  0.91010  1.0000
  H   H8        1.0  0.17670  0.12970  0.58990  1.0000
