data_image0
_chemical_formula_structural       Mn8O56C24H40
_chemical_formula_sum              "Mn8 O56 C24 H40"
_cell_length_a       8.27
_cell_length_b       16.2939
_cell_length_c       17.0155
_cell_angle_alpha    90
_cell_angle_beta     90
_cell_angle_gamma    90

_space_group_name_H-M_alt    "P 1"
_space_group_IT_number       1

loop_
  _space_group_symop_operation_xyz
  'x, y, z'

loop_
  _atom_site_type_symbol
  _atom_site_label
  _atom_site_symmetry_multiplicity
  _atom_site_fract_x
  _atom_site_fract_y
  _atom_site_fract_z
  _atom_site_occupancy
  Mn  Mn1       1.0  0.72432  0.18757  0.61909  1.0000
  Mn  Mn2       1.0  0.77568  0.81243  0.11909  1.0000
  Mn  Mn3       1.0  0.27568  0.68757  0.88091  1.0000
  Mn  Mn4       1.0  0.22432  0.31243  0.38091  1.0000
  Mn  Mn5       1.0  0.27568  0.81243  0.38091  1.0000
  Mn  Mn6       1.0  0.22432  0.18757  0.88091  1.0000
  Mn  Mn7       1.0  0.72432  0.31243  0.11909  1.0000
  Mn  Mn8       1.0  0.77568  0.68757  0.61909  1.0000
  O   O1        1.0  0.70944  0.31402  0.67069  1.0000
  O   O2        1.0  0.79056  0.68598  0.17069  1.0000
  O   O3        1.0  0.29056  0.81402  0.82931  1.0000
  O   O4        1.0  0.20944  0.18598  0.32931  1.0000
  O   O5        1.0  0.29056  0.68598  0.32931  1.0000
  O   O6        1.0  0.20944  0.31402  0.82931  1.0000
  O   O7        1.0  0.70944  0.18598  0.17069  1.0000
  O   O8        1.0  0.79056  0.81402  0.67069  1.0000
  O   O9        1.0  0.72128  0.93238  0.57109  1.0000
  O   O10       1.0  0.77872  0.06762  0.07109  1.0000
  O   O11       1.0  0.27872  0.43238  0.92891  1.0000
  O   O12       1.0  0.22128  0.56762  0.42891  1.0000
  O   O13       1.0  0.27872  0.06762  0.42891  1.0000
  O   O14       1.0  0.22128  0.93238  0.92891  1.0000
  O   O15       1.0  0.72128  0.56762  0.07109  1.0000
  O   O16       1.0  0.77872  0.43238  0.57109  1.0000
  O   O17       1.0  0.73532  0.06879  0.56580  1.0000
  O   O18       1.0  0.76468  0.93121  0.06580  1.0000
  O   O19       1.0  0.26468  0.56879  0.93420  1.0000
  O   O20       1.0  0.23532  0.43121  0.43420  1.0000
  O   O21       1.0  0.26468  0.93121  0.43420  1.0000
  O   O22       1.0  0.23532  0.06879  0.93420  1.0000
  O   O23       1.0  0.73532  0.43121  0.06580  1.0000
  O   O24       1.0  0.76468  0.56879  0.56580  1.0000
  O   O25       1.0  0.98492  0.15794  0.83446  1.0000
  O   O26       1.0  0.51508  0.84206  0.33446  1.0000
  O   O27       1.0  0.01508  0.65794  0.66554  1.0000
  O   O28       1.0  0.48492  0.34206  0.16554  1.0000
  O   O29       1.0  0.01508  0.84206  0.16554  1.0000
  O   O30       1.0  0.48492  0.15794  0.66554  1.0000
  O   O31       1.0  0.98492  0.34206  0.33446  1.0000
  O   O32       1.0  0.51508  0.65794  0.83446  1.0000
  O   O33       1.0  0.47014  0.28591  0.41936  1.0000
  O   O34       1.0  0.02986  0.71409  0.91936  1.0000
  O   O35       1.0  0.52986  0.78591  0.08064  1.0000
  O   O36       1.0  0.97014  0.21409  0.58064  1.0000
  O   O37       1.0  0.52986  0.71409  0.58064  1.0000
  O   O38       1.0  0.97014  0.28591  0.08064  1.0000
  O   O39       1.0  0.47014  0.21409  0.91936  1.0000
  O   O40       1.0  0.02986  0.78591  0.41936  1.0000
  O   O41       1.0  0.81745  0.14570  0.73263  1.0000
  O   O42       1.0  0.68255  0.85430  0.23263  1.0000
  O   O43       1.0  0.18255  0.64570  0.76737  1.0000
  O   O44       1.0  0.31745  0.35430  0.26737  1.0000
  O   O45       1.0  0.18255  0.85430  0.26737  1.0000
  O   O46       1.0  0.31745  0.14570  0.76737  1.0000
  O   O47       1.0  0.81745  0.35430  0.23263  1.0000
  O   O48       1.0  0.68255  0.64570  0.73263  1.0000
  O   O49       1.0  0.64005  0.24576  0.51271  1.0000
  O   O50       1.0  0.85995  0.75424  0.01271  1.0000
  O   O51       1.0  0.35995  0.74576  0.98729  1.0000
  O   O52       1.0  0.14005  0.25424  0.48729  1.0000
  O   O53       1.0  0.35995  0.75424  0.48729  1.0000
  O   O54       1.0  0.14005  0.24576  0.98729  1.0000
  O   O55       1.0  0.64005  0.25424  0.01271  1.0000
  O   O56       1.0  0.85995  0.74576  0.51271  1.0000
  C   C1        1.0  0.71448  0.00268  0.60152  1.0000
  C   C2        1.0  0.78552  0.99732  0.10152  1.0000
  C   C3        1.0  0.28552  0.50268  0.89848  1.0000
  C   C4        1.0  0.21448  0.49732  0.39848  1.0000
  C   C5        1.0  0.28552  0.99732  0.39848  1.0000
  C   C6        1.0  0.21448  0.00268  0.89848  1.0000
  C   C7        1.0  0.71448  0.49732  0.10152  1.0000
  C   C8        1.0  0.78552  0.50268  0.60152  1.0000
  C   C9        1.0  0.51012  0.24017  0.47629  1.0000
  C   C10       1.0  0.98988  0.75983  0.97629  1.0000
  C   C11       1.0  0.48988  0.74017  0.02371  1.0000
  C   C12       1.0  0.01012  0.25983  0.52371  1.0000
  C   C13       1.0  0.48988  0.75983  0.52371  1.0000
  C   C14       1.0  0.01012  0.24017  0.02371  1.0000
  C   C15       1.0  0.51012  0.25983  0.97629  1.0000
  C   C16       1.0  0.98988  0.74017  0.47629  1.0000
  C   C17       1.0  0.94691  0.16919  0.76319  1.0000
  C   C18       1.0  0.55309  0.83081  0.26319  1.0000
  C   C19       1.0  0.05309  0.66919  0.73681  1.0000
  C   C20       1.0  0.44691  0.33081  0.23681  1.0000
  C   C21       1.0  0.05309  0.83081  0.23681  1.0000
  C   C22       1.0  0.44691  0.16919  0.73681  1.0000
  C   C23       1.0  0.94691  0.33081  0.26319  1.0000
  C   C24       1.0  0.55309  0.66919  0.76319  1.0000
  H   H1        1.0  0.62180  0.32550  0.68660  1.0000
  H   H2        1.0  0.87820  0.67450  0.18660  1.0000
  H   H3        1.0  0.37820  0.82550  0.81340  1.0000
  H   H4        1.0  0.12180  0.17450  0.31340  1.0000
  H   H5        1.0  0.37820  0.67450  0.31340  1.0000
  H   H6        1.0  0.12180  0.32550  0.81340  1.0000
  H   H7        1.0  0.62180  0.17450  0.18660  1.0000
  H   H8        1.0  0.87820  0.82550  0.68660  1.0000
  H   H9        1.0  0.73200  0.34890  0.63630  1.0000
  H   H10       1.0  0.76800  0.65110  0.13630  1.0000
  H   H11       1.0  0.26800  0.84890  0.86370  1.0000
  H   H12       1.0  0.23200  0.15110  0.36370  1.0000
  H   H13       1.0  0.26800  0.65110  0.36370  1.0000
  H   H14       1.0  0.23200  0.34890  0.86370  1.0000
  H   H15       1.0  0.73200  0.15110  0.13630  1.0000
  H   H16       1.0  0.76800  0.84890  0.63630  1.0000
  H   H17       1.0  0.69300  0.00680  0.65730  1.0000
  H   H18       1.0  0.80700  0.99320  0.15730  1.0000
  H   H19       1.0  0.30700  0.50680  0.84270  1.0000
  H   H20       1.0  0.19300  0.49320  0.34270  1.0000
  H   H21       1.0  0.30700  0.99320  0.34270  1.0000
  H   H22       1.0  0.19300  0.00680  0.84270  1.0000
  H   H23       1.0  0.69300  0.49320  0.15730  1.0000
  H   H24       1.0  0.80700  0.50680  0.65730  1.0000
  H   H25       1.0  0.43460  0.19750  0.49080  1.0000
  H   H26       1.0  0.06540  0.80250  0.99080  1.0000
  H   H27       1.0  0.56540  0.69750  0.00920  1.0000
  H   H28       1.0  0.93460  0.30250  0.50920  1.0000
  H   H29       1.0  0.56540  0.80250  0.50920  1.0000
  H   H30       1.0  0.93460  0.19750  0.00920  1.0000
  H   H31       1.0  0.43460  0.30250  0.99080  1.0000
  H   H32       1.0  0.06540  0.69750  0.49080  1.0000
  H   H33       1.0  0.02520  0.19650  0.73050  1.0000
  H   H34       1.0  0.47480  0.80350  0.23050  1.0000
  H   H35       1.0  0.97480  0.69650  0.76950  1.0000
  H   H36       1.0  0.52520  0.30350  0.26950  1.0000
  H   H37       1.0  0.97480  0.80350  0.26950  1.0000
  H   H38       1.0  0.52520  0.19650  0.76950  1.0000
  H   H39       1.0  0.02520  0.30350  0.23050  1.0000
  H   H40       1.0  0.47480  0.69650  0.73050  1.0000
