data_image0
_chemical_formula_structural       Eu4O32N16C12H4C4H4C8H4C16H4C4H4C4H4C20H4C4H4C8H4C16H4C4H4C4H4C8
_chemical_formula_sum              "Eu4 O32 N16 C112 H48"
_cell_length_a       19.644
_cell_length_b       12.355
_cell_length_c       13.2149
_cell_angle_alpha    90
_cell_angle_beta     90
_cell_angle_gamma    90

_space_group_name_H-M_alt    "P 1"
_space_group_IT_number       1

loop_
  _space_group_symop_operation_xyz
  'x, y, z'

loop_
  _atom_site_type_symbol
  _atom_site_label
  _atom_site_symmetry_multiplicity
  _atom_site_fract_x
  _atom_site_fract_y
  _atom_site_fract_z
  _atom_site_occupancy
  Eu  Eu1       1.0  0.48184  0.96928  0.21988  1.0000
  Eu  Eu2       1.0  0.51816  0.03072  0.71988  1.0000
  Eu  Eu3       1.0  0.98184  0.53072  0.21988  1.0000
  Eu  Eu4       1.0  0.01816  0.46928  0.71988  1.0000
  O   O1        1.0  0.47080  0.80450  0.31020  1.0000
  O   O2        1.0  0.52920  0.19550  0.81020  1.0000
  O   O3        1.0  0.97080  0.69550  0.31020  1.0000
  O   O4        1.0  0.02920  0.30450  0.81020  1.0000
  O   O5        1.0  0.42490  0.68850  0.42060  1.0000
  O   O6        1.0  0.57510  0.31150  0.92060  1.0000
  O   O7        1.0  0.92490  0.81150  0.42060  1.0000
  O   O8        1.0  0.07510  0.18850  0.92060  1.0000
  O   O9        1.0  0.08930  0.62160  0.69650  1.0000
  O   O10       1.0  0.91070  0.37840  0.19650  1.0000
  O   O11       1.0  0.58930  0.87840  0.69650  1.0000
  O   O12       1.0  0.41070  0.12160  0.19650  1.0000
  O   O13       1.0  0.18750  0.69850  0.65290  1.0000
  O   O14       1.0  0.81250  0.30150  0.15290  1.0000
  O   O15       1.0  0.68750  0.80150  0.65290  1.0000
  O   O16       1.0  0.31250  0.19850  0.15290  1.0000
  O   O17       1.0  0.51230  0.04380  0.37820  1.0000
  O   O18       1.0  0.48770  0.95620  0.87820  1.0000
  O   O19       1.0  0.01230  0.45620  0.37820  1.0000
  O   O20       1.0  0.98770  0.54380  0.87820  1.0000
  O   O21       1.0  0.51060  0.99430  0.54060  1.0000
  O   O22       1.0  0.48940  0.00570  0.04060  1.0000
  O   O23       1.0  0.01060  0.50570  0.54060  1.0000
  O   O24       1.0  0.98940  0.49430  0.04060  1.0000
  O   O25       1.0  0.40070  0.07160  0.73100  1.0000
  O   O26       1.0  0.59930  0.92840  0.23100  1.0000
  O   O27       1.0  0.90070  0.42840  0.73100  1.0000
  O   O28       1.0  0.09930  0.57160  0.23100  1.0000
  O   O29       1.0  0.29650  0.02540  0.78040  1.0000
  O   O30       1.0  0.70350  0.97460  0.28040  1.0000
  O   O31       1.0  0.79650  0.47460  0.78040  1.0000
  O   O32       1.0  0.20350  0.52540  0.28040  1.0000
  N   N1        1.0  0.38140  0.95740  0.35690  1.0000
  N   N2        1.0  0.61860  0.04260  0.85690  1.0000
  N   N3        1.0  0.88140  0.54260  0.35690  1.0000
  N   N4        1.0  0.11860  0.45740  0.85690  1.0000
  N   N5        1.0  0.13470  0.42660  0.63340  1.0000
  N   N6        1.0  0.86530  0.57340  0.13340  1.0000
  N   N7        1.0  0.63470  0.07340  0.63340  1.0000
  N   N8        1.0  0.36530  0.92660  0.13340  1.0000
  N   N9        1.0  0.49170  0.20050  0.59930  1.0000
  N   N10       1.0  0.50830  0.79950  0.09930  1.0000
  N   N11       1.0  0.99170  0.29950  0.59930  1.0000
  N   N12       1.0  0.00830  0.70050  0.09930  1.0000
  N   N13       1.0  0.43510  0.86680  0.69540  1.0000
  N   N14       1.0  0.56490  0.13320  0.19540  1.0000
  N   N15       1.0  0.93510  0.63320  0.69540  1.0000
  N   N16       1.0  0.06490  0.36680  0.19540  1.0000
  C   C1        1.0  0.42700  0.77580  0.37690  1.0000
  C   C2        1.0  0.57300  0.22420  0.87690  1.0000
  C   C3        1.0  0.92700  0.72420  0.37690  1.0000
  C   C4        1.0  0.07300  0.27580  0.87690  1.0000
  C   C5        1.0  0.37570  0.86140  0.40640  1.0000
  C   C6        1.0  0.62430  0.13860  0.90640  1.0000
  C   C7        1.0  0.87570  0.63860  0.40640  1.0000
  C   C8        1.0  0.12430  0.36140  0.90640  1.0000
  C   C9        1.0  0.32800  0.84390  0.48180  1.0000
  C   C10       1.0  0.67200  0.15610  0.98180  1.0000
  C   C11       1.0  0.82800  0.65610  0.48180  1.0000
  C   C12       1.0  0.17200  0.34390  0.98180  1.0000
  H   H1        1.0  0.32381  0.77602  0.51161  1.0000
  H   H2        1.0  0.67619  0.22398  0.01161  1.0000
  H   H3        1.0  0.82381  0.72398  0.51161  1.0000
  H   H4        1.0  0.17619  0.27602  0.01161  1.0000
  C   C13       1.0  0.28670  0.92800  0.51200  1.0000
  C   C14       1.0  0.71330  0.07200  0.01200  1.0000
  C   C15       1.0  0.78670  0.57200  0.51200  1.0000
  C   C16       1.0  0.21330  0.42800  0.01200  1.0000
  H   H5        1.0  0.25471  0.91806  0.56300  1.0000
  H   H6        1.0  0.74529  0.08194  0.06300  1.0000
  H   H7        1.0  0.75471  0.58194  0.56300  1.0000
  H   H8        1.0  0.24529  0.41806  0.06300  1.0000
  C   C17       1.0  0.29360  0.02690  0.46530  1.0000
  C   C18       1.0  0.70640  0.97310  0.96530  1.0000
  C   C19       1.0  0.79360  0.47310  0.46530  1.0000
  C   C20       1.0  0.20640  0.52690  0.96530  1.0000
  C   C21       1.0  0.34140  0.03640  0.38770  1.0000
  C   C22       1.0  0.65860  0.96360  0.88770  1.0000
  C   C23       1.0  0.84140  0.46360  0.38770  1.0000
  C   C24       1.0  0.15860  0.53640  0.88770  1.0000
  H   H9        1.0  0.34519  0.10299  0.35544  1.0000
  H   H10       1.0  0.65481  0.89701  0.85544  1.0000
  H   H11       1.0  0.84519  0.39701  0.35544  1.0000
  H   H12       1.0  0.15481  0.60299  0.85544  1.0000
  C   C25       1.0  0.25900  0.12430  0.49620  1.0000
  C   C26       1.0  0.74100  0.87570  0.99620  1.0000
  C   C27       1.0  0.75900  0.37570  0.49620  1.0000
  C   C28       1.0  0.24100  0.62430  0.99620  1.0000
  C   C29       1.0  0.23720  0.21050  0.51490  1.0000
  C   C30       1.0  0.76280  0.78950  0.01490  1.0000
  C   C31       1.0  0.73720  0.28950  0.51490  1.0000
  C   C32       1.0  0.26280  0.71050  0.01490  1.0000
  C   C33       1.0  0.21460  0.31760  0.54380  1.0000
  C   C34       1.0  0.78540  0.68240  0.04380  1.0000
  C   C35       1.0  0.71460  0.18240  0.54380  1.0000
  C   C36       1.0  0.28540  0.81760  0.04380  1.0000
  C   C37       1.0  0.15620  0.33140  0.60150  1.0000
  C   C38       1.0  0.84380  0.66860  0.10150  1.0000
  C   C39       1.0  0.65620  0.16860  0.60150  1.0000
  C   C40       1.0  0.34380  0.83140  0.10150  1.0000
  H   H13       1.0  0.13088  0.27039  0.61841  1.0000
  H   H14       1.0  0.86912  0.72961  0.11841  1.0000
  H   H15       1.0  0.63088  0.22961  0.61841  1.0000
  H   H16       1.0  0.36912  0.77039  0.11841  1.0000
  C   C41       1.0  0.25250  0.40810  0.52000  1.0000
  C   C42       1.0  0.74750  0.59190  0.02000  1.0000
  C   C43       1.0  0.75250  0.09190  0.52000  1.0000
  C   C44       1.0  0.24750  0.90810  0.02000  1.0000
  H   H17       1.0  0.29128  0.40205  0.47997  1.0000
  H   H18       1.0  0.70872  0.59795  0.97997  1.0000
  H   H19       1.0  0.79128  0.09795  0.47997  1.0000
  H   H20       1.0  0.20872  0.90205  0.97997  1.0000
  C   C45       1.0  0.23220  0.50700  0.55610  1.0000
  C   C46       1.0  0.76780  0.49300  0.05610  1.0000
  C   C47       1.0  0.73220  0.99300  0.55610  1.0000
  C   C48       1.0  0.26780  0.00700  0.05610  1.0000
  H   H21       1.0  0.25801  0.56854  0.54292  1.0000
  H   H22       1.0  0.74199  0.43146  0.04292  1.0000
  H   H23       1.0  0.75801  0.93146  0.54292  1.0000
  H   H24       1.0  0.24199  0.06854  0.04292  1.0000
  C   C49       1.0  0.17250  0.51460  0.61290  1.0000
  C   C50       1.0  0.82750  0.48540  0.11290  1.0000
  C   C51       1.0  0.67250  0.98540  0.61290  1.0000
  C   C52       1.0  0.32750  0.01460  0.11290  1.0000
  C   C53       1.0  0.14730  0.62080  0.65660  1.0000
  C   C54       1.0  0.85270  0.37920  0.15660  1.0000
  C   C55       1.0  0.64730  0.87920  0.65660  1.0000
  C   C56       1.0  0.35270  0.12080  0.15660  1.0000
  C   C57       1.0  0.50450  0.06310  0.46980  1.0000
  C   C58       1.0  0.49550  0.93690  0.96980  1.0000
  C   C59       1.0  0.00450  0.43690  0.46980  1.0000
  C   C60       1.0  0.99550  0.56310  0.96980  1.0000
  C   C61       1.0  0.48660  0.17770  0.50000  1.0000
  C   C62       1.0  0.51340  0.82230  0.00000  1.0000
  C   C63       1.0  0.98660  0.32230  0.50000  1.0000
  C   C64       1.0  0.01340  0.67770  0.00000  1.0000
  C   C65       1.0  0.46570  0.25450  0.42950  1.0000
  C   C66       1.0  0.53430  0.74550  0.92950  1.0000
  C   C67       1.0  0.96570  0.24550  0.42950  1.0000
  C   C68       1.0  0.03430  0.75450  0.92950  1.0000
  H   H25       1.0  0.46344  0.23714  0.36106  1.0000
  H   H26       1.0  0.53656  0.76286  0.86106  1.0000
  H   H27       1.0  0.96344  0.26286  0.36106  1.0000
  H   H28       1.0  0.03656  0.73714  0.86106  1.0000
  C   C69       1.0  0.44840  0.35720  0.46300  1.0000
  C   C70       1.0  0.55160  0.64280  0.96300  1.0000
  C   C71       1.0  0.94840  0.14280  0.46300  1.0000
  C   C72       1.0  0.05160  0.85720  0.96300  1.0000
  H   H29       1.0  0.43281  0.40883  0.41729  1.0000
  H   H30       1.0  0.56719  0.59117  0.91729  1.0000
  H   H31       1.0  0.93281  0.09117  0.41729  1.0000
  H   H32       1.0  0.06719  0.90883  0.91729  1.0000
  C   C73       1.0  0.45430  0.38290  0.56510  1.0000
  C   C74       1.0  0.54570  0.61710  0.06510  1.0000
  C   C75       1.0  0.95430  0.11710  0.56510  1.0000
  C   C76       1.0  0.04570  0.88290  0.06510  1.0000
  C   C77       1.0  0.47700  0.30040  0.62920  1.0000
  C   C78       1.0  0.52300  0.69960  0.12920  1.0000
  C   C79       1.0  0.97700  0.19960  0.62920  1.0000
  C   C80       1.0  0.02300  0.80040  0.12920  1.0000
  H   H33       1.0  0.48219  0.31659  0.69751  1.0000
  H   H34       1.0  0.51781  0.68341  0.19751  1.0000
  H   H35       1.0  0.98219  0.18341  0.69751  1.0000
  H   H36       1.0  0.01781  0.81659  0.19751  1.0000
  C   C81       1.0  0.43830  0.48650  0.60620  1.0000
  C   C82       1.0  0.56170  0.51350  0.10620  1.0000
  C   C83       1.0  0.93830  0.01350  0.60620  1.0000
  C   C84       1.0  0.06170  0.98650  0.10620  1.0000
  C   C85       1.0  0.42470  0.57240  0.64040  1.0000
  C   C86       1.0  0.57530  0.42760  0.14040  1.0000
  C   C87       1.0  0.92470  0.92760  0.64040  1.0000
  C   C88       1.0  0.07530  0.07240  0.14040  1.0000
  C   C89       1.0  0.40620  0.67820  0.67840  1.0000
  C   C90       1.0  0.59380  0.32180  0.17840  1.0000
  C   C91       1.0  0.90620  0.82180  0.67840  1.0000
  C   C92       1.0  0.09380  0.17820  0.17840  1.0000
  C   C93       1.0  0.45090  0.76490  0.66830  1.0000
  C   C94       1.0  0.54910  0.23510  0.16830  1.0000
  C   C95       1.0  0.95090  0.73510  0.66830  1.0000
  C   C96       1.0  0.04910  0.26490  0.16830  1.0000
  H   H37       1.0  0.49385  0.75169  0.64138  1.0000
  H   H38       1.0  0.50615  0.24831  0.14138  1.0000
  H   H39       1.0  0.99385  0.74831  0.64138  1.0000
  H   H40       1.0  0.00615  0.25169  0.14138  1.0000
  C   C97       1.0  0.34340  0.69780  0.72310  1.0000
  C   C98       1.0  0.65660  0.30220  0.22310  1.0000
  C   C99       1.0  0.84340  0.80220  0.72310  1.0000
  C   C100      1.0  0.15660  0.19780  0.22310  1.0000
  H   H41       1.0  0.31322  0.64114  0.73503  1.0000
  H   H42       1.0  0.68678  0.35886  0.23503  1.0000
  H   H43       1.0  0.81322  0.85886  0.73503  1.0000
  H   H44       1.0  0.18678  0.14114  0.23503  1.0000
  C   C101      1.0  0.32610  0.80310  0.74970  1.0000
  C   C102      1.0  0.67390  0.19690  0.24970  1.0000
  C   C103      1.0  0.82610  0.69690  0.74970  1.0000
  C   C104      1.0  0.17390  0.30310  0.24970  1.0000
  H   H45       1.0  0.28466  0.81810  0.78054  1.0000
  H   H46       1.0  0.71534  0.18190  0.28054  1.0000
  H   H47       1.0  0.78466  0.68190  0.78054  1.0000
  H   H48       1.0  0.21534  0.31810  0.28054  1.0000
  C   C105      1.0  0.37240  0.88570  0.72910  1.0000
  C   C106      1.0  0.62760  0.11430  0.22910  1.0000
  C   C107      1.0  0.87240  0.61430  0.72910  1.0000
  C   C108      1.0  0.12760  0.38570  0.22910  1.0000
  C   C109      1.0  0.35360  0.00300  0.75130  1.0000
  C   C110      1.0  0.64640  0.99700  0.25130  1.0000
  C   C111      1.0  0.85360  0.49700  0.75130  1.0000
  C   C112      1.0  0.14640  0.50300  0.25130  1.0000
