data_image0
_chemical_formula_structural       Cr2Na2O24C2H2C2H2C2H2C2H2C2H2C2H2
_chemical_formula_sum              "Cr2 Na2 O24 C12 H12"
_cell_length_a       8.10474
_cell_length_b       9.26392
_cell_length_c       12.0459
_cell_angle_alpha    90
_cell_angle_beta     91.1766
_cell_angle_gamma    90

_space_group_name_H-M_alt    "P 1"
_space_group_IT_number       1

loop_
  _space_group_symop_operation_xyz
  'x, y, z'

loop_
  _atom_site_type_symbol
  _atom_site_label
  _atom_site_symmetry_multiplicity
  _atom_site_fract_x
  _atom_site_fract_y
  _atom_site_fract_z
  _atom_site_occupancy
  Cr  Cr1       1.0  0.68078  0.27150  0.46277  1.0000
  Cr  Cr2       1.0  0.18078  0.72850  0.96277  1.0000
  Na  Na1       1.0  0.18412  0.77082  0.46207  1.0000
  Na  Na2       1.0  0.68412  0.22918  0.96207  1.0000
  O   O1        1.0  0.56111  0.29186  0.60367  1.0000
  O   O2        1.0  0.06111  0.70814  0.10367  1.0000
  O   O3        1.0  0.54371  0.28134  0.78602  1.0000
  O   O4        1.0  0.04371  0.71866  0.28602  1.0000
  O   O5        1.0  0.48464  0.17428  0.39617  1.0000
  O   O6        1.0  0.98464  0.82572  0.89617  1.0000
  O   O7        1.0  0.82412  0.21322  0.14272  1.0000
  O   O8        1.0  0.32412  0.78678  0.64272  1.0000
  O   O9        1.0  0.77010  0.08496  0.51796  1.0000
  O   O10       1.0  0.27010  0.91504  0.01796  1.0000
  O   O11       1.0  0.28915  0.00645  0.38656  1.0000
  O   O12       1.0  0.78915  0.99355  0.88656  1.0000
  O   O13       1.0  0.59503  0.45767  0.40646  1.0000
  O   O14       1.0  0.09503  0.54233  0.90646  1.0000
  O   O15       1.0  0.42561  0.64446  0.39966  1.0000
  O   O16       1.0  0.92561  0.35554  0.89966  1.0000
  O   O17       1.0  0.87642  0.37022  0.52885  1.0000
  O   O18       1.0  0.37642  0.62978  0.02885  1.0000
  O   O19       1.0  0.07412  0.53599  0.53704  1.0000
  O   O20       1.0  0.57412  0.46401  0.03704  1.0000
  O   O21       1.0  0.80206  0.24715  0.32371  1.0000
  O   O22       1.0  0.30206  0.75285  0.82371  1.0000
  O   O23       1.0  0.96001  0.91415  0.52533  1.0000
  O   O24       1.0  0.46001  0.08585  0.02533  1.0000
  C   C1        1.0  0.95000  0.48007  0.49292  1.0000
  C   C2        1.0  0.45000  0.51993  0.99292  1.0000
  H   H1        1.0  0.90800  0.52250  0.42830  1.0000
  H   H2        1.0  0.40800  0.47750  0.92830  1.0000
  C   C3        1.0  0.90860  0.02935  0.49064  1.0000
  C   C4        1.0  0.40860  0.97065  0.99064  1.0000
  H   H3        1.0  0.97350  0.08020  0.44130  1.0000
  H   H4        1.0  0.47350  0.91980  0.94130  1.0000
  C   C5        1.0  0.40843  0.06620  0.43253  1.0000
  C   C6        1.0  0.90843  0.93380  0.93253  1.0000
  H   H5        1.0  0.44520  0.02810  0.50000  1.0000
  H   H6        1.0  0.94520  0.97190  0.00000  1.0000
  C   C7        1.0  0.47020  0.52900  0.43829  1.0000
  C   C8        1.0  0.97020  0.47100  0.93829  1.0000
  H   H7        1.0  0.40850  0.49000  0.49520  1.0000
  H   H8        1.0  0.90850  0.51000  0.99520  1.0000
  C   C9        1.0  0.61970  0.26665  0.69999  1.0000
  C   C10       1.0  0.11970  0.73335  0.19999  1.0000
  H   H9        1.0  0.72830  0.23470  0.70580  1.0000
  H   H10       1.0  0.22830  0.76530  0.20580  1.0000
  C   C11       1.0  0.74590  0.24717  0.22505  1.0000
  C   C12       1.0  0.24590  0.75283  0.72505  1.0000
  H   H11       1.0  0.63660  0.27510  0.21390  1.0000
  H   H12       1.0  0.13660  0.72490  0.71390  1.0000
