data_image0
_chemical_formula_structural       Cr2Na2C2H2C2H2C2H2C2H2C2H2C2H2O24
_chemical_formula_sum              "Cr2 Na2 C12 H12 O24"
_cell_length_a       8.082
_cell_length_b       9.1463
_cell_length_c       11.948
_cell_angle_alpha    90
_cell_angle_beta     91.101
_cell_angle_gamma    90

_space_group_name_H-M_alt    "P 1"
_space_group_IT_number       1

loop_
  _space_group_symop_operation_xyz
  'x, y, z'

loop_
  _atom_site_type_symbol
  _atom_site_label
  _atom_site_symmetry_multiplicity
  _atom_site_fract_x
  _atom_site_fract_y
  _atom_site_fract_z
  _atom_site_occupancy
  Cr  Cr1       1.0  0.58276  0.77495  0.50187  1.0000
  Cr  Cr2       1.0  0.08276  0.22505  0.00187  1.0000
  Na  Na1       1.0  0.07900  0.27410  0.50380  1.0000
  Na  Na2       1.0  0.57900  0.72590  0.00380  1.0000
  C   C1        1.0  0.85760  0.56850  0.52960  1.0000
  C   C2        1.0  0.35760  0.43150  0.02960  1.0000
  H   H1        1.0  0.82267  0.53160  0.46057  1.0000
  H   H2        1.0  0.32267  0.46840  0.96057  1.0000
  C   C3        1.0  0.64530  0.76630  0.26100  1.0000
  C   C4        1.0  0.14530  0.23370  0.76100  1.0000
  H   H3        1.0  0.53561  0.73614  0.25388  1.0000
  H   H4        1.0  0.03561  0.26386  0.75388  1.0000
  C   C5        1.0  0.35360  0.53130  0.47520  1.0000
  C   C6        1.0  0.85360  0.46870  0.97520  1.0000
  H   H5        1.0  0.28869  0.58257  0.52520  1.0000
  H   H6        1.0  0.78869  0.41743  0.02520  1.0000
  C   C7        1.0  0.51490  0.74780  0.74000  1.0000
  C   C8        1.0  0.01490  0.25220  0.24000  1.0000
  H   H7        1.0  0.62525  0.77385  0.75067  1.0000
  H   H8        1.0  0.12525  0.22615  0.25067  1.0000
  C   C9        1.0  0.79230  0.03630  0.52430  1.0000
  C   C10       1.0  0.29230  0.96370  0.02430  1.0000
  H   H9        1.0  0.85164  0.99843  0.46505  1.0000
  H   H10       1.0  0.35164  0.00157  0.96505  1.0000
  C   C11       1.0  0.31300  0.98510  0.47420  1.0000
  C   C12       1.0  0.81300  0.01490  0.97420  1.0000
  H   H11       1.0  0.35517  0.02740  0.53959  1.0000
  H   H12       1.0  0.85517  0.97260  0.03959  1.0000
  O   O1        1.0  0.77960  0.67730  0.56870  1.0000
  O   O2        1.0  0.27960  0.32270  0.06870  1.0000
  O   O3        1.0  0.97710  0.50840  0.57730  1.0000
  O   O4        1.0  0.47710  0.49160  0.07730  1.0000
  O   O5        1.0  0.70410  0.79350  0.36140  1.0000
  O   O6        1.0  0.20410  0.20650  0.86140  1.0000
  O   O7        1.0  0.72150  0.77730  0.17730  1.0000
  O   O8        1.0  0.22150  0.22270  0.67730  1.0000
  O   O9        1.0  0.49370  0.58580  0.44760  1.0000
  O   O10       1.0  0.99370  0.41420  0.94760  1.0000
  O   O11       1.0  0.30190  0.41420  0.43810  1.0000
  O   O12       1.0  0.80190  0.58580  0.93810  1.0000
  O   O13       1.0  0.46020  0.75090  0.64120  1.0000
  O   O14       1.0  0.96020  0.24910  0.14120  1.0000
  O   O15       1.0  0.43710  0.71380  0.82320  1.0000
  O   O16       1.0  0.93710  0.28620  0.32320  1.0000
  O   O17       1.0  0.66760  0.96380  0.55850  1.0000
  O   O18       1.0  0.16760  0.03620  0.05850  1.0000
  O   O19       1.0  0.83750  0.15140  0.56460  1.0000
  O   O20       1.0  0.33750  0.84860  0.06460  1.0000
  O   O21       1.0  0.38680  0.87470  0.43450  1.0000
  O   O22       1.0  0.88680  0.12530  0.93450  1.0000
  O   O23       1.0  0.18640  0.03950  0.42950  1.0000
  O   O24       1.0  0.68640  0.96050  0.92950  1.0000
