data_image0
_chemical_formula_structural       Cr2Na2C2H2C2H2C2H2C2H2C2H2C2H2O24
_chemical_formula_sum              "Cr2 Na2 C12 H12 O24"
_cell_length_a       8.00341
_cell_length_b       8.7348
_cell_length_c       11.602
_cell_angle_alpha    90
_cell_angle_beta     90.718
_cell_angle_gamma    90

_space_group_name_H-M_alt    "P 1"
_space_group_IT_number       1

loop_
  _space_group_symop_operation_xyz
  'x, y, z'

loop_
  _atom_site_type_symbol
  _atom_site_label
  _atom_site_symmetry_multiplicity
  _atom_site_fract_x
  _atom_site_fract_y
  _atom_site_fract_z
  _atom_site_occupancy
  Cr  Cr1       1.0  0.58268  0.78445  0.50160  1.0000
  Cr  Cr2       1.0  0.08268  0.21555  0.00160  1.0000
  Na  Na1       1.0  0.07950  0.28440  0.50300  1.0000
  Na  Na2       1.0  0.57950  0.71560  0.00300  1.0000
  C   C1        1.0  0.86030  0.57520  0.53020  1.0000
  C   C2        1.0  0.36030  0.42480  0.03020  1.0000
  H   H1        1.0  0.81780  0.53140  0.46291  1.0000
  H   H2        1.0  0.31780  0.46860  0.96291  1.0000
  C   C3        1.0  0.64800  0.75750  0.25900  1.0000
  C   C4        1.0  0.14800  0.24250  0.75900  1.0000
  H   H3        1.0  0.53715  0.72612  0.25393  1.0000
  H   H4        1.0  0.03715  0.27388  0.75393  1.0000
  C   C5        1.0  0.35470  0.52940  0.47400  1.0000
  C   C6        1.0  0.85470  0.47060  0.97400  1.0000
  H   H5        1.0  0.29092  0.57894  0.52909  1.0000
  H   H6        1.0  0.79092  0.42106  0.02909  1.0000
  C   C7        1.0  0.51340  0.75160  0.74300  1.0000
  C   C8        1.0  0.01340  0.24840  0.24300  1.0000
  H   H7        1.0  0.62638  0.77338  0.75283  1.0000
  H   H8        1.0  0.12638  0.22662  0.25283  1.0000
  C   C9        1.0  0.79120  0.05650  0.52800  1.0000
  C   C10       1.0  0.29120  0.94350  0.02800  1.0000
  H   H9        1.0  0.85237  0.01750  0.46702  1.0000
  H   H10       1.0  0.35237  0.98250  0.96702  1.0000
  C   C11       1.0  0.30890  0.99680  0.47470  1.0000
  C   C12       1.0  0.80890  0.00320  0.97470  1.0000
  H   H11       1.0  0.35389  0.04260  0.54046  1.0000
  H   H12       1.0  0.85389  0.95740  0.04046  1.0000
  O   O1        1.0  0.78210  0.68770  0.57130  1.0000
  O   O2        1.0  0.28210  0.31230  0.07130  1.0000
  O   O3        1.0  0.98670  0.51930  0.57160  1.0000
  O   O4        1.0  0.48670  0.48070  0.07160  1.0000
  O   O5        1.0  0.70720  0.80070  0.35940  1.0000
  O   O6        1.0  0.20720  0.19930  0.85940  1.0000
  O   O7        1.0  0.72800  0.75650  0.17430  1.0000
  O   O8        1.0  0.22800  0.24350  0.67430  1.0000
  O   O9        1.0  0.49840  0.58490  0.44820  1.0000
  O   O10       1.0  0.99840  0.41510  0.94820  1.0000
  O   O11       1.0  0.29960  0.41390  0.42850  1.0000
  O   O12       1.0  0.79960  0.58610  0.92850  1.0000
  O   O13       1.0  0.45600  0.76180  0.64410  1.0000
  O   O14       1.0  0.95600  0.23820  0.14410  1.0000
  O   O15       1.0  0.43300  0.71420  0.83210  1.0000
  O   O16       1.0  0.93300  0.28580  0.33210  1.0000
  O   O17       1.0  0.66400  0.98220  0.55910  1.0000
  O   O18       1.0  0.16400  0.01780  0.05910  1.0000
  O   O19       1.0  0.83880  0.17370  0.57140  1.0000
  O   O20       1.0  0.33880  0.82630  0.07140  1.0000
  O   O21       1.0  0.38490  0.88330  0.43170  1.0000
  O   O22       1.0  0.88490  0.11670  0.93170  1.0000
  O   O23       1.0  0.17620  0.05000  0.43290  1.0000
  O   O24       1.0  0.67620  0.95000  0.93290  1.0000
