data_image0
_chemical_formula_structural       Cr2Na2C2H2C2H2C2H2C2H2C2H2C2H2O24
_chemical_formula_sum              "Cr2 Na2 C12 H12 O24"
_cell_length_a       8.06
_cell_length_b       9.0392
_cell_length_c       11.852
_cell_angle_alpha    90
_cell_angle_beta     91.018
_cell_angle_gamma    90

_space_group_name_H-M_alt    "P 1"
_space_group_IT_number       1

loop_
  _space_group_symop_operation_xyz
  'x, y, z'

loop_
  _atom_site_type_symbol
  _atom_site_label
  _atom_site_symmetry_multiplicity
  _atom_site_fract_x
  _atom_site_fract_y
  _atom_site_fract_z
  _atom_site_occupancy
  Cr  Cr1       1.0  0.58293  0.77725  0.50204  1.0000
  Cr  Cr2       1.0  0.08293  0.22275  0.00204  1.0000
  Na  Na1       1.0  0.07860  0.27670  0.50360  1.0000
  Na  Na2       1.0  0.57860  0.72330  0.00360  1.0000
  C   C1        1.0  0.85910  0.57000  0.52970  1.0000
  C   C2        1.0  0.35910  0.43000  0.02970  1.0000
  H   H1        1.0  0.82285  0.53184  0.46068  1.0000
  H   H2        1.0  0.32285  0.46816  0.96068  1.0000
  C   C3        1.0  0.64680  0.76490  0.25900  1.0000
  C   C4        1.0  0.14680  0.23510  0.75900  1.0000
  H   H3        1.0  0.53658  0.73519  0.25310  1.0000
  H   H4        1.0  0.03658  0.26481  0.75310  1.0000
  C   C5        1.0  0.35430  0.53090  0.47520  1.0000
  C   C6        1.0  0.85430  0.46910  0.97520  1.0000
  H   H5        1.0  0.29219  0.58008  0.52897  1.0000
  H   H6        1.0  0.79219  0.41992  0.02897  1.0000
  C   C7        1.0  0.51460  0.74920  0.73900  1.0000
  C   C8        1.0  0.01460  0.25080  0.23900  1.0000
  H   H7        1.0  0.62590  0.77420  0.74823  1.0000
  H   H8        1.0  0.12590  0.22580  0.24823  1.0000
  C   C9        1.0  0.79200  0.04250  0.52450  1.0000
  C   C10       1.0  0.29200  0.95750  0.02450  1.0000
  H   H9        1.0  0.85061  0.00621  0.46353  1.0000
  H   H10       1.0  0.35061  0.99379  0.96353  1.0000
  C   C11       1.0  0.31160  0.98890  0.47370  1.0000
  C   C12       1.0  0.81160  0.01110  0.97370  1.0000
  H   H11       1.0  0.35478  0.03208  0.53912  1.0000
  H   H12       1.0  0.85478  0.96792  0.03912  1.0000
  O   O1        1.0  0.78060  0.67950  0.56960  1.0000
  O   O2        1.0  0.28060  0.32050  0.06960  1.0000
  O   O3        1.0  0.97990  0.51090  0.57610  1.0000
  O   O4        1.0  0.47990  0.48910  0.07610  1.0000
  O   O5        1.0  0.70480  0.79590  0.36000  1.0000
  O   O6        1.0  0.20480  0.20410  0.86000  1.0000
  O   O7        1.0  0.72330  0.77150  0.17580  1.0000
  O   O8        1.0  0.22330  0.22850  0.67580  1.0000
  O   O9        1.0  0.49360  0.58520  0.44690  1.0000
  O   O10       1.0  0.99360  0.41480  0.94690  1.0000
  O   O11       1.0  0.29920  0.41510  0.43360  1.0000
  O   O12       1.0  0.79920  0.58490  0.93360  1.0000
  O   O13       1.0  0.45760  0.75420  0.64230  1.0000
  O   O14       1.0  0.95760  0.24580  0.14230  1.0000
  O   O15       1.0  0.43630  0.71320  0.82660  1.0000
  O   O16       1.0  0.93630  0.28680  0.32660  1.0000
  O   O17       1.0  0.66650  0.96870  0.55810  1.0000
  O   O18       1.0  0.16650  0.03130  0.05810  1.0000
  O   O19       1.0  0.83890  0.15780  0.56820  1.0000
  O   O20       1.0  0.33890  0.84220  0.06820  1.0000
  O   O21       1.0  0.38610  0.87740  0.43260  1.0000
  O   O22       1.0  0.88610  0.12260  0.93260  1.0000
  O   O23       1.0  0.18330  0.04240  0.43010  1.0000
  O   O24       1.0  0.68330  0.95760  0.93010  1.0000
