data_image0
_chemical_formula_structural       Al2Na2O24C2H2C2H2C2H2C2H2C2H2C2H2
_chemical_formula_sum              "Al2 Na2 O24 C12 H12"
_cell_length_a       8.034
_cell_length_b       9.2512
_cell_length_c       11.963
_cell_angle_alpha    90
_cell_angle_beta     90.953
_cell_angle_gamma    90

_space_group_name_H-M_alt    "P 1"
_space_group_IT_number       1

loop_
  _space_group_symop_operation_xyz
  'x, y, z'

loop_
  _atom_site_type_symbol
  _atom_site_label
  _atom_site_symmetry_multiplicity
  _atom_site_fract_x
  _atom_site_fract_y
  _atom_site_fract_z
  _atom_site_occupancy
  Al  Al1       1.0  0.16282  0.27078  0.41373  1.0000
  Al  Al2       1.0  0.66282  0.72922  0.91373  1.0000
  Na  Na1       1.0  0.15845  0.23034  0.91455  1.0000
  Na  Na2       1.0  0.65845  0.76966  0.41455  1.0000
  O   O1        1.0  0.04866  0.24788  0.54941  1.0000
  O   O2        1.0  0.54866  0.75212  0.04941  1.0000
  O   O3        1.0  0.01980  0.21645  0.73151  1.0000
  O   O4        1.0  0.51980  0.78355  0.23151  1.0000
  O   O5        1.0  0.35313  0.17453  0.47597  1.0000
  O   O6        1.0  0.85313  0.82547  0.97597  1.0000
  O   O7        1.0  0.54992  0.00678  0.49043  1.0000
  O   O8        1.0  0.04992  0.99322  0.99043  1.0000
  O   O9        1.0  0.25022  0.44853  0.46702  1.0000
  O   O10       1.0  0.75022  0.55147  0.96702  1.0000
  O   O11       1.0  0.41370  0.64023  0.47665  1.0000
  O   O12       1.0  0.91370  0.35977  0.97665  1.0000
  O   O13       1.0  0.38530  0.08255  0.85329  1.0000
  O   O14       1.0  0.88530  0.91745  0.35329  1.0000
  O   O15       1.0  0.57242  0.90806  0.86159  1.0000
  O   O16       1.0  0.07242  0.09194  0.36159  1.0000
  O   O17       1.0  0.27352  0.46540  0.83949  1.0000
  O   O18       1.0  0.77352  0.53460  0.33949  1.0000
  O   O19       1.0  0.47320  0.63198  0.85196  1.0000
  O   O20       1.0  0.97320  0.36802  0.35196  1.0000
  O   O21       1.0  0.27527  0.28936  0.27635  1.0000
  O   O22       1.0  0.77527  0.71064  0.77635  1.0000
  O   O23       1.0  0.29990  0.28357  0.09292  1.0000
  O   O24       1.0  0.79990  0.71643  0.59292  1.0000
  C   C1        1.0  0.10100  0.25050  0.64970  1.0000
  C   C2        1.0  0.60100  0.74950  0.14970  1.0000
  H   H1        1.0  0.21010  0.28070  0.66240  1.0000
  H   H2        1.0  0.71010  0.71930  0.16240  1.0000
  C   C3        1.0  0.43140  0.06640  0.44267  1.0000
  C   C4        1.0  0.93140  0.93360  0.94267  1.0000
  H   H3        1.0  0.39650  0.02670  0.37480  1.0000
  H   H4        1.0  0.89650  0.97330  0.87480  1.0000
  C   C5        1.0  0.37320  0.52370  0.43530  1.0000
  C   C6        1.0  0.87320  0.47630  0.93530  1.0000
  H   H5        1.0  0.43650  0.48810  0.37700  1.0000
  H   H6        1.0  0.93650  0.51190  0.87700  1.0000
  C   C7        1.0  0.43360  0.96630  0.88774  1.0000
  C   C8        1.0  0.93360  0.03370  0.38774  1.0000
  H   H7        1.0  0.36540  0.91610  0.93640  1.0000
  H   H8        1.0  0.86540  0.08390  0.43640  1.0000
  C   C9        1.0  0.39700  0.52070  0.88485  1.0000
  C   C10       1.0  0.89700  0.47930  0.38485  1.0000
  H   H9        1.0  0.43790  0.47630  0.94940  1.0000
  H   H10       1.0  0.93790  0.52370  0.44940  1.0000
  C   C11       1.0  0.21990  0.26630  0.17751  1.0000
  C   C12       1.0  0.71990  0.73370  0.67751  1.0000
  H   H11       1.0  0.11070  0.23400  0.16940  1.0000
  H   H12       1.0  0.61070  0.76600  0.66940  1.0000
