data_image0
_chemical_formula_structural       Al2Na2O24C2H2C2H2C2H2C2H2C2H2C2H2
_chemical_formula_sum              "Al2 Na2 O24 C12 H12"
_cell_length_a       8.0343
_cell_length_b       9.231
_cell_length_c       11.9465
_cell_angle_alpha    90
_cell_angle_beta     90.966
_cell_angle_gamma    90

_space_group_name_H-M_alt    "P 1"
_space_group_IT_number       1

loop_
  _space_group_symop_operation_xyz
  'x, y, z'

loop_
  _atom_site_type_symbol
  _atom_site_label
  _atom_site_symmetry_multiplicity
  _atom_site_fract_x
  _atom_site_fract_y
  _atom_site_fract_z
  _atom_site_occupancy
  Al  Al1       1.0  0.31930  0.72717  0.53666  1.0000
  Al  Al2       1.0  0.81930  0.27283  0.03666  1.0000
  Na  Na1       1.0  0.81470  0.22860  0.53780  1.0000
  Na  Na2       1.0  0.31470  0.77140  0.03780  1.0000
  O   O1        1.0  0.43180  0.70920  0.39950  1.0000
  O   O2        1.0  0.93180  0.29080  0.89950  1.0000
  O   O3        1.0  0.45690  0.71720  0.21550  1.0000
  O   O4        1.0  0.95690  0.28280  0.71550  1.0000
  O   O5        1.0  0.50920  0.82370  0.59970  1.0000
  O   O6        1.0  0.00920  0.17630  0.09970  1.0000
  O   O7        1.0  0.17590  0.78500  0.85470  1.0000
  O   O8        1.0  0.67590  0.21500  0.35470  1.0000
  O   O9        1.0  0.22970  0.90700  0.48450  1.0000
  O   O10       1.0  0.72970  0.09300  0.98450  1.0000
  O   O11       1.0  0.70710  0.99160  0.61380  1.0000
  O   O12       1.0  0.20710  0.00840  0.11380  1.0000
  O   O13       1.0  0.40680  0.54900  0.59000  1.0000
  O   O14       1.0  0.90680  0.45100  0.09000  1.0000
  O   O15       1.0  0.57030  0.35730  0.60000  1.0000
  O   O16       1.0  0.07030  0.64270  0.10000  1.0000
  O   O17       1.0  0.13010  0.62990  0.47490  1.0000
  O   O18       1.0  0.63010  0.37010  0.97490  1.0000
  O   O19       1.0  0.92910  0.46370  0.46290  1.0000
  O   O20       1.0  0.42910  0.53630  0.96290  1.0000
  O   O21       1.0  0.20450  0.75040  0.67280  1.0000
  O   O22       1.0  0.70450  0.24960  0.17280  1.0000
  O   O23       1.0  0.03990  0.08060  0.47590  1.0000
  O   O24       1.0  0.53990  0.91940  0.97590  1.0000
  C   C1        1.0  0.05320  0.51930  0.50900  1.0000
  C   C2        1.0  0.55320  0.48070  0.00900  1.0000
  H   H1        1.0  0.09300  0.47570  0.57430  1.0000
  H   H2        1.0  0.59300  0.52430  0.07430  1.0000
  C   C3        1.0  0.09030  0.96360  0.51080  1.0000
  C   C4        1.0  0.59030  0.03640  0.01080  1.0000
  H   H3        1.0  0.02290  0.91260  0.55950  1.0000
  H   H4        1.0  0.52290  0.08740  0.05950  1.0000
  C   C5        1.0  0.58970  0.93130  0.56560  1.0000
  C   C6        1.0  0.08970  0.06870  0.06560  1.0000
  H   H5        1.0  0.55700  0.96940  0.49670  1.0000
  H   H6        1.0  0.05700  0.03060  0.99670  1.0000
  C   C7        1.0  0.53030  0.47300  0.55890  1.0000
  C   C8        1.0  0.03030  0.52700  0.05890  1.0000
  H   H7        1.0  0.59420  0.50850  0.50080  1.0000
  H   H8        1.0  0.09420  0.49150  0.00080  1.0000
  C   C9        1.0  0.37770  0.73320  0.30080  1.0000
  C   C10       1.0  0.87770  0.26680  0.80080  1.0000
  H   H9        1.0  0.26870  0.76590  0.29290  1.0000
  H   H10       1.0  0.76870  0.23410  0.79290  1.0000
  C   C11       1.0  0.25760  0.74860  0.77300  1.0000
  C   C12       1.0  0.75760  0.25140  0.27300  1.0000
  H   H11       1.0  0.36640  0.71760  0.78600  1.0000
  H   H12       1.0  0.86640  0.28240  0.28600  1.0000
