data_image0
_chemical_formula_structural       C8H4C8H4C8H4C4H8C8H4C8H4C8H4C16Co2O36H8
_chemical_formula_sum              "C68 H40 Co2 O36"
_cell_length_a       14.9273
_cell_length_b       20.3448
_cell_length_c       13.746
_cell_angle_alpha    90
_cell_angle_beta     115.563
_cell_angle_gamma    90

_space_group_name_H-M_alt    "P 1"
_space_group_IT_number       1

loop_
  _space_group_symop_operation_xyz
  'x, y, z'

loop_
  _atom_site_type_symbol
  _atom_site_label
  _atom_site_symmetry_multiplicity
  _atom_site_fract_x
  _atom_site_fract_y
  _atom_site_fract_z
  _atom_site_occupancy
  C   C1        1.0  0.37362  0.80208  0.45070  1.0000
  C   C2        1.0  0.62638  0.30208  0.04930  1.0000
  C   C3        1.0  0.62638  0.19792  0.54930  1.0000
  C   C4        1.0  0.37362  0.69792  0.95070  1.0000
  C   C5        1.0  0.39960  0.73542  0.47210  1.0000
  C   C6        1.0  0.60040  0.23542  0.02790  1.0000
  C   C7        1.0  0.60040  0.26458  0.52790  1.0000
  C   C8        1.0  0.39960  0.76458  0.97210  1.0000
  H   H1        1.0  0.46620  0.72380  0.50880  1.0000
  H   H2        1.0  0.53380  0.22380  0.99120  1.0000
  H   H3        1.0  0.53380  0.27620  0.49120  1.0000
  H   H4        1.0  0.46620  0.77620  0.00880  1.0000
  C   C9        1.0  0.32810  0.68720  0.43950  1.0000
  C   C10       1.0  0.67190  0.18720  0.06050  1.0000
  C   C11       1.0  0.67190  0.31280  0.56050  1.0000
  C   C12       1.0  0.32810  0.81280  0.93950  1.0000
  C   C13       1.0  0.22884  0.70533  0.38370  1.0000
  C   C14       1.0  0.77116  0.20533  0.11630  1.0000
  C   C15       1.0  0.77116  0.29467  0.61630  1.0000
  C   C16       1.0  0.22884  0.79467  0.88370  1.0000
  H   H5        1.0  0.18050  0.67270  0.36220  1.0000
  H   H6        1.0  0.81950  0.17270  0.13780  1.0000
  H   H7        1.0  0.81950  0.32730  0.63780  1.0000
  H   H8        1.0  0.18050  0.82730  0.86220  1.0000
  C   C17       1.0  0.19950  0.76970  0.35930  1.0000
  C   C18       1.0  0.80050  0.26970  0.14070  1.0000
  C   C19       1.0  0.80050  0.23030  0.64070  1.0000
  C   C20       1.0  0.19950  0.73030  0.85930  1.0000
  C   C21       1.0  0.27370  0.81898  0.39420  1.0000
  C   C22       1.0  0.72630  0.31898  0.10580  1.0000
  C   C23       1.0  0.72630  0.18102  0.60580  1.0000
  C   C24       1.0  0.27370  0.68102  0.89420  1.0000
  H   H9        1.0  0.25570  0.86290  0.37930  1.0000
  H   H10       1.0  0.74430  0.36290  0.12070  1.0000
  H   H11       1.0  0.74430  0.13710  0.62070  1.0000
  H   H12       1.0  0.25570  0.63710  0.87930  1.0000
  C   C25       1.0  0.35370  0.61511  0.46630  1.0000
  C   C26       1.0  0.64630  0.11511  0.03370  1.0000
  C   C27       1.0  0.64630  0.38489  0.53370  1.0000
  C   C28       1.0  0.35370  0.88489  0.96630  1.0000
  H   H13       1.0  0.37330  0.60850  0.54270  1.0000
  H   H14       1.0  0.62670  0.10850  0.95730  1.0000
  H   H15       1.0  0.62670  0.39150  0.45730  1.0000
  H   H16       1.0  0.37330  0.89150  0.04270  1.0000
  H   H17       1.0  0.29480  0.58890  0.42700  1.0000
  H   H18       1.0  0.70520  0.08890  0.07300  1.0000
  H   H19       1.0  0.70520  0.41110  0.57300  1.0000
  H   H20       1.0  0.29480  0.91110  0.92700  1.0000
  C   C29       1.0  0.43543  0.59104  0.43960  1.0000
  C   C30       1.0  0.56457  0.09104  0.06040  1.0000
  C   C31       1.0  0.56457  0.40896  0.56040  1.0000
  C   C32       1.0  0.43543  0.90896  0.93960  1.0000
  C   C33       1.0  0.53416  0.59643  0.51090  1.0000
  C   C34       1.0  0.46584  0.09643  0.98910  1.0000
  C   C35       1.0  0.46584  0.40357  0.48910  1.0000
  C   C36       1.0  0.53416  0.90357  0.01090  1.0000
  H   H21       1.0  0.55130  0.61530  0.57820  1.0000
  H   H22       1.0  0.44870  0.11530  0.92180  1.0000
  H   H23       1.0  0.44870  0.38470  0.42180  1.0000
  H   H24       1.0  0.55130  0.88470  0.07820  1.0000
  C   C37       1.0  0.60836  0.57422  0.48410  1.0000
  C   C38       1.0  0.39164  0.07422  0.01590  1.0000
  C   C39       1.0  0.39164  0.42578  0.51590  1.0000
  C   C40       1.0  0.60836  0.92578  0.98410  1.0000
  C   C41       1.0  0.58608  0.54977  0.38200  1.0000
  C   C42       1.0  0.41392  0.04977  0.11800  1.0000
  C   C43       1.0  0.41392  0.45023  0.61800  1.0000
  C   C44       1.0  0.58608  0.95023  0.88200  1.0000
  H   H25       1.0  0.63640  0.53680  0.36330  1.0000
  H   H26       1.0  0.36360  0.03680  0.13670  1.0000
  H   H27       1.0  0.36360  0.46320  0.63670  1.0000
  H   H28       1.0  0.63640  0.96320  0.86330  1.0000
  C   C45       1.0  0.48584  0.54496  0.30730  1.0000
  C   C46       1.0  0.51416  0.04496  0.19270  1.0000
  C   C47       1.0  0.51416  0.45504  0.69270  1.0000
  C   C48       1.0  0.48584  0.95504  0.80730  1.0000
  C   C49       1.0  0.41140  0.56510  0.33640  1.0000
  C   C50       1.0  0.58860  0.06510  0.16360  1.0000
  C   C51       1.0  0.58860  0.43490  0.66360  1.0000
  C   C52       1.0  0.41140  0.93490  0.83640  1.0000
  H   H29       1.0  0.34510  0.56130  0.28710  1.0000
  H   H30       1.0  0.65490  0.06130  0.21290  1.0000
  H   H31       1.0  0.65490  0.43870  0.71290  1.0000
  H   H32       1.0  0.34510  0.93870  0.78710  1.0000
  C   C53       1.0  0.45220  0.85459  0.48290  1.0000
  C   C54       1.0  0.54780  0.35459  0.01710  1.0000
  C   C55       1.0  0.54780  0.14541  0.51710  1.0000
  C   C56       1.0  0.45220  0.64541  0.98290  1.0000
  C   C57       1.0  0.09210  0.78741  0.29720  1.0000
  C   C58       1.0  0.90790  0.28741  0.20280  1.0000
  C   C59       1.0  0.90790  0.21259  0.70280  1.0000
  C   C60       1.0  0.09210  0.71259  0.79720  1.0000
  C   C61       1.0  0.71530  0.58078  0.56840  1.0000
  C   C62       1.0  0.28470  0.08078  0.93160  1.0000
  C   C63       1.0  0.28470  0.41922  0.43160  1.0000
  C   C64       1.0  0.71530  0.91922  0.06840  1.0000
  C   C65       1.0  0.45850  0.51935  0.19550  1.0000
  C   C66       1.0  0.54150  0.01935  0.30450  1.0000
  C   C67       1.0  0.54150  0.48065  0.80450  1.0000
  C   C68       1.0  0.45850  0.98065  0.69550  1.0000
  Co  Co1       1.0  0.50000  0.00000  0.50000  1.0000
  Co  Co2       1.0  0.50000  0.50000  0.00000  1.0000
  O   O1        1.0  0.42263  0.91182  0.45676  1.0000
  O   O2        1.0  0.57737  0.41182  0.04324  1.0000
  O   O3        1.0  0.57737  0.08818  0.54324  1.0000
  O   O4        1.0  0.42263  0.58818  0.95676  1.0000
  O   O5        1.0  0.54167  0.83720  0.53298  1.0000
  O   O6        1.0  0.45833  0.33720  0.96702  1.0000
  O   O7        1.0  0.45833  0.16280  0.46702  1.0000
  O   O8        1.0  0.54167  0.66280  0.03298  1.0000
  O   O9        1.0  0.06849  0.84848  0.28280  1.0000
  O   O10       1.0  0.93151  0.34848  0.21720  1.0000
  O   O11       1.0  0.93151  0.15152  0.71720  1.0000
  O   O12       1.0  0.06849  0.65152  0.78280  1.0000
  O   O13       1.0  0.02925  0.74356  0.26202  1.0000
  O   O14       1.0  0.97075  0.24356  0.23798  1.0000
  O   O15       1.0  0.97075  0.25644  0.73798  1.0000
  O   O16       1.0  0.02925  0.75644  0.76202  1.0000
  O   O17       1.0  0.73052  0.61989  0.64427  1.0000
  O   O18       1.0  0.26948  0.11989  0.85573  1.0000
  O   O19       1.0  0.26948  0.38011  0.35573  1.0000
  O   O20       1.0  0.73052  0.88011  0.14427  1.0000
  O   O21       1.0  0.78157  0.54596  0.56116  1.0000
  O   O22       1.0  0.21843  0.04596  0.93884  1.0000
  O   O23       1.0  0.21843  0.45404  0.43884  1.0000
  O   O24       1.0  0.78157  0.95404  0.06116  1.0000
  O   O25       1.0  0.36938  0.50496  0.13892  1.0000
  O   O26       1.0  0.63062  0.00496  0.36108  1.0000
  O   O27       1.0  0.63062  0.49504  0.86108  1.0000
  O   O28       1.0  0.36938  0.99504  0.63892  1.0000
  O   O29       1.0  0.52444  0.51287  0.16391  1.0000
  O   O30       1.0  0.47556  0.01287  0.33609  1.0000
  O   O31       1.0  0.47556  0.48713  0.83609  1.0000
  O   O32       1.0  0.52444  0.98713  0.66391  1.0000
  O   O33       1.0  0.36369  0.04957  0.45808  1.0000
  O   O34       1.0  0.63631  0.54957  0.04192  1.0000
  O   O35       1.0  0.63631  0.95043  0.54192  1.0000
  O   O36       1.0  0.36369  0.45043  0.95808  1.0000
  H   H33       1.0  0.36530  0.08660  0.43040  1.0000
  H   H34       1.0  0.63470  0.58660  0.06960  1.0000
  H   H35       1.0  0.63470  0.91340  0.56960  1.0000
  H   H36       1.0  0.36530  0.41340  0.93040  1.0000
  H   H37       1.0  0.35440  0.05490  0.51210  1.0000
  H   H38       1.0  0.64560  0.55490  0.98790  1.0000
  H   H39       1.0  0.64560  0.94510  0.48790  1.0000
  H   H40       1.0  0.35440  0.44510  0.01210  1.0000
