data_image0
_chemical_formula_structural       CoO10C2O2C8H10
_chemical_formula_sum              "Co1 O12 C10 H10"
_cell_length_a       7.7953
_cell_length_b       7.8204
_cell_length_c       10.7049
_cell_angle_alpha    88.858
_cell_angle_beta     74.86
_cell_angle_gamma    66.29

_space_group_name_H-M_alt    "P 1"
_space_group_IT_number       1

loop_
  _space_group_symop_operation_xyz
  'x, y, z'

loop_
  _atom_site_type_symbol
  _atom_site_label
  _atom_site_symmetry_multiplicity
  _atom_site_fract_x
  _atom_site_fract_y
  _atom_site_fract_z
  _atom_site_occupancy
  Co  Co1       1.0  0.50000  0.50000  0.50000  1.0000
  O   O1        1.0  0.21657  0.31046  0.66318  1.0000
  O   O2        1.0  0.78343  0.68954  0.33682  1.0000
  O   O3        1.0  0.42735  0.29997  0.43005  1.0000
  O   O4        1.0  0.57265  0.70003  0.56995  1.0000
  O   O5        1.0  0.79847  0.59626  0.72479  1.0000
  O   O6        1.0  0.20153  0.40374  0.27521  1.0000
  O   O7        1.0  0.71667  0.27697  0.56815  1.0000
  O   O8        1.0  0.28333  0.72303  0.43185  1.0000
  O   O9        1.0  0.30590  0.54300  0.68509  1.0000
  O   O10       1.0  0.69410  0.45700  0.31491  1.0000
  C   C1        1.0  0.81595  0.49794  0.03566  1.0000
  C   C2        1.0  0.18405  0.50206  0.96434  1.0000
  O   O11       1.0  0.76032  0.34261  0.79996  1.0000
  O   O12       1.0  0.23968  0.65739  0.20004  1.0000
  C   C3        1.0  0.21580  0.44304  0.72766  1.0000
  C   C4        1.0  0.78420  0.55696  0.27234  1.0000
  C   C5        1.0  0.91466  0.47945  0.90459  1.0000
  C   C6        1.0  0.08534  0.52055  0.09541  1.0000
  C   C7        1.0  0.09995  0.48056  0.86873  1.0000
  C   C8        1.0  0.90005  0.51944  0.13127  1.0000
  C   C9        1.0  0.81673  0.47008  0.80142  1.0000
  C   C10       1.0  0.18327  0.52992  0.19858  1.0000
  H   H1        1.0  0.83100  0.24900  0.51750  1.0000
  H   H2        1.0  0.16900  0.75100  0.48250  1.0000
  H   H3        1.0  0.72600  0.29500  0.64390  1.0000
  H   H4        1.0  0.27400  0.70500  0.35610  1.0000
  H   H5        1.0  0.35000  0.33600  0.38150  1.0000
  H   H6        1.0  0.65000  0.66400  0.61850  1.0000
  H   H7        1.0  0.35400  0.28200  0.49890  1.0000
  H   H8        1.0  0.64600  0.71800  0.50110  1.0000
  H   H9        1.0  0.69400  0.50000  0.06070  1.0000
  H   H10       1.0  0.30600  0.50000  0.93930  1.0000
