data_image0
_chemical_formula_structural       Zn4O24C8O8C8H8C32H8C8H8C8H8
_chemical_formula_sum              "Zn4 O32 C64 H32"
_cell_length_a       21.27
_cell_length_b       12.2947
_cell_length_c       14.7085
_cell_angle_alpha    90
_cell_angle_beta     97.489
_cell_angle_gamma    90

_space_group_name_H-M_alt    "P 1"
_space_group_IT_number       1

loop_
  _space_group_symop_operation_xyz
  'x, y, z'

loop_
  _atom_site_type_symbol
  _atom_site_label
  _atom_site_symmetry_multiplicity
  _atom_site_fract_x
  _atom_site_fract_y
  _atom_site_fract_z
  _atom_site_occupancy
  Zn  Zn1       1.0  0.50000  0.01994  0.75000  1.0000
  Zn  Zn2       1.0  0.00000  0.51994  0.75000  1.0000
  Zn  Zn3       1.0  0.50000  0.98006  0.25000  1.0000
  Zn  Zn4       1.0  0.00000  0.48006  0.25000  1.0000
  O   O1        1.0  0.54513  0.05769  0.35369  1.0000
  O   O2        1.0  0.45487  0.05769  0.14631  1.0000
  O   O3        1.0  0.04513  0.55769  0.35369  1.0000
  O   O4        1.0  0.95487  0.55769  0.14631  1.0000
  O   O5        1.0  0.45487  0.94231  0.64631  1.0000
  O   O6        1.0  0.54513  0.94231  0.85369  1.0000
  O   O7        1.0  0.95487  0.44231  0.64631  1.0000
  O   O8        1.0  0.04513  0.44231  0.85369  1.0000
  O   O9        1.0  0.55137  0.10038  0.67303  1.0000
  O   O10       1.0  0.44863  0.10038  0.82697  1.0000
  O   O11       1.0  0.05137  0.60038  0.67303  1.0000
  O   O12       1.0  0.94863  0.60038  0.82697  1.0000
  O   O13       1.0  0.44863  0.89962  0.32697  1.0000
  O   O14       1.0  0.55137  0.89962  0.17303  1.0000
  O   O15       1.0  0.94863  0.39962  0.32697  1.0000
  O   O16       1.0  0.05137  0.39962  0.17303  1.0000
  O   O17       1.0  0.60312  0.23265  0.75269  1.0000
  O   O18       1.0  0.39688  0.23265  0.74731  1.0000
  O   O19       1.0  0.10312  0.73265  0.75269  1.0000
  O   O20       1.0  0.89688  0.73265  0.74731  1.0000
  O   O21       1.0  0.39688  0.76735  0.24731  1.0000
  O   O22       1.0  0.60312  0.76735  0.25269  1.0000
  O   O23       1.0  0.89688  0.26735  0.24731  1.0000
  O   O24       1.0  0.10312  0.26735  0.25269  1.0000
  C   C1        1.0  0.61134  0.19061  0.43079  1.0000
  C   C2        1.0  0.38866  0.19061  0.06921  1.0000
  C   C3        1.0  0.11134  0.69061  0.43079  1.0000
  C   C4        1.0  0.88866  0.69061  0.06921  1.0000
  C   C5        1.0  0.38866  0.80939  0.56921  1.0000
  C   C6        1.0  0.61134  0.80939  0.93079  1.0000
  C   C7        1.0  0.88866  0.30939  0.56921  1.0000
  C   C8        1.0  0.11134  0.30939  0.93079  1.0000
  O   O25       1.0  0.59653  0.16609  0.26947  1.0000
  O   O26       1.0  0.40347  0.16609  0.23053  1.0000
  O   O27       1.0  0.09653  0.66609  0.26947  1.0000
  O   O28       1.0  0.90347  0.66609  0.23053  1.0000
  O   O29       1.0  0.40347  0.83391  0.73053  1.0000
  O   O30       1.0  0.59653  0.83391  0.76947  1.0000
  O   O31       1.0  0.90347  0.33391  0.73053  1.0000
  O   O32       1.0  0.09653  0.33391  0.76947  1.0000
  C   C9        1.0  0.59127  0.16126  0.51324  1.0000
  C   C10       1.0  0.40873  0.16126  0.98676  1.0000
  C   C11       1.0  0.09127  0.66126  0.51324  1.0000
  C   C12       1.0  0.90873  0.66126  0.98676  1.0000
  C   C13       1.0  0.40873  0.83874  0.48676  1.0000
  C   C14       1.0  0.59127  0.83874  0.01324  1.0000
  C   C15       1.0  0.90873  0.33874  0.48676  1.0000
  C   C16       1.0  0.09127  0.33874  0.01324  1.0000
  H   H1        1.0  0.56137  0.10616  0.51389  1.0000
  H   H2        1.0  0.43863  0.10616  0.98611  1.0000
  H   H3        1.0  0.06137  0.60616  0.51389  1.0000
  H   H4        1.0  0.93863  0.60616  0.98611  1.0000
  H   H5        1.0  0.43863  0.89384  0.48611  1.0000
  H   H6        1.0  0.56137  0.89384  0.01389  1.0000
  H   H7        1.0  0.93863  0.39384  0.48611  1.0000
  H   H8        1.0  0.06137  0.39384  0.01389  1.0000
  C   C17       1.0  0.61464  0.21197  0.59474  1.0000
  C   C18       1.0  0.38536  0.21197  0.90526  1.0000
  C   C19       1.0  0.11464  0.71197  0.59474  1.0000
  C   C20       1.0  0.88536  0.71197  0.90526  1.0000
  C   C21       1.0  0.38536  0.78803  0.40526  1.0000
  C   C22       1.0  0.61464  0.78803  0.09474  1.0000
  C   C23       1.0  0.88536  0.28803  0.40526  1.0000
  C   C24       1.0  0.11464  0.28803  0.09474  1.0000
  C   C25       1.0  0.58274  0.13494  0.34334  1.0000
  C   C26       1.0  0.41726  0.13494  0.15666  1.0000
  C   C27       1.0  0.08274  0.63494  0.34334  1.0000
  C   C28       1.0  0.91726  0.63494  0.15666  1.0000
  C   C29       1.0  0.41726  0.86506  0.65666  1.0000
  C   C30       1.0  0.58274  0.86506  0.84334  1.0000
  C   C31       1.0  0.91726  0.36506  0.65666  1.0000
  C   C32       1.0  0.08274  0.36506  0.84334  1.0000
  C   C33       1.0  0.58865  0.18020  0.68162  1.0000
  C   C34       1.0  0.41135  0.18020  0.81838  1.0000
  C   C35       1.0  0.08865  0.68020  0.68162  1.0000
  C   C36       1.0  0.91135  0.68020  0.81838  1.0000
  C   C37       1.0  0.41135  0.81980  0.31838  1.0000
  C   C38       1.0  0.58865  0.81980  0.18162  1.0000
  C   C39       1.0  0.91135  0.31980  0.31838  1.0000
  C   C40       1.0  0.08865  0.31980  0.18162  1.0000
  C   C41       1.0  0.65666  0.27140  0.43037  1.0000
  C   C42       1.0  0.34334  0.27140  0.06963  1.0000
  C   C43       1.0  0.15666  0.77140  0.43037  1.0000
  C   C44       1.0  0.84334  0.77140  0.06963  1.0000
  C   C45       1.0  0.34334  0.72860  0.56963  1.0000
  C   C46       1.0  0.65666  0.72860  0.93037  1.0000
  C   C47       1.0  0.84334  0.22860  0.56963  1.0000
  C   C48       1.0  0.15666  0.22860  0.93037  1.0000
  H   H9        1.0  0.67064  0.29206  0.37560  1.0000
  H   H10       1.0  0.32936  0.29206  0.12440  1.0000
  H   H11       1.0  0.17064  0.79206  0.37560  1.0000
  H   H12       1.0  0.82936  0.79206  0.12440  1.0000
  H   H13       1.0  0.32936  0.70794  0.62440  1.0000
  H   H14       1.0  0.67064  0.70794  0.87560  1.0000
  H   H15       1.0  0.82936  0.20794  0.62440  1.0000
  H   H16       1.0  0.17064  0.20794  0.87560  1.0000
  C   C49       1.0  0.68089  0.32070  0.51107  1.0000
  C   C50       1.0  0.31911  0.32070  0.98893  1.0000
  C   C51       1.0  0.18089  0.82070  0.51107  1.0000
  C   C52       1.0  0.81911  0.82070  0.98893  1.0000
  C   C53       1.0  0.31911  0.67930  0.48893  1.0000
  C   C54       1.0  0.68089  0.67930  0.01107  1.0000
  C   C55       1.0  0.81911  0.17930  0.48893  1.0000
  C   C56       1.0  0.18089  0.17930  0.01107  1.0000
  H   H17       1.0  0.71165  0.37439  0.51051  1.0000
  H   H18       1.0  0.28835  0.37439  0.98949  1.0000
  H   H19       1.0  0.21165  0.87439  0.51051  1.0000
  H   H20       1.0  0.78835  0.87439  0.98949  1.0000
  H   H21       1.0  0.28835  0.62561  0.48949  1.0000
  H   H22       1.0  0.71165  0.62561  0.01051  1.0000
  H   H23       1.0  0.78835  0.12561  0.48949  1.0000
  H   H24       1.0  0.21165  0.12561  0.01051  1.0000
  C   C57       1.0  0.66031  0.29210  0.59325  1.0000
  C   C58       1.0  0.33969  0.29210  0.90675  1.0000
  C   C59       1.0  0.16031  0.79210  0.59325  1.0000
  C   C60       1.0  0.83969  0.79210  0.90675  1.0000
  C   C61       1.0  0.33969  0.70790  0.40675  1.0000
  C   C62       1.0  0.66031  0.70790  0.09325  1.0000
  C   C63       1.0  0.83969  0.20790  0.40675  1.0000
  C   C64       1.0  0.16031  0.20790  0.09325  1.0000
  H   H25       1.0  0.67709  0.32644  0.64733  1.0000
  H   H26       1.0  0.32291  0.32644  0.85267  1.0000
  H   H27       1.0  0.17709  0.82644  0.64733  1.0000
  H   H28       1.0  0.82291  0.82644  0.85267  1.0000
  H   H29       1.0  0.32291  0.67356  0.35267  1.0000
  H   H30       1.0  0.67709  0.67356  0.14733  1.0000
  H   H31       1.0  0.82291  0.17356  0.35267  1.0000
  H   H32       1.0  0.17709  0.17356  0.14733  1.0000
