data_image0
_chemical_formula_structural       Mn4O24C12H12
_chemical_formula_sum              "Mn4 O24 C12 H12"
_cell_length_a       8.726
_cell_length_b       11.9504
_cell_length_c       8.1369
_cell_angle_alpha    90
_cell_angle_beta     90
_cell_angle_gamma    90

_space_group_name_H-M_alt    "P 1"
_space_group_IT_number       1

loop_
  _space_group_symop_operation_xyz
  'x, y, z'

loop_
  _atom_site_type_symbol
  _atom_site_label
  _atom_site_symmetry_multiplicity
  _atom_site_fract_x
  _atom_site_fract_y
  _atom_site_fract_z
  _atom_site_occupancy
  Mn  Mn1       1.0  0.00000  0.50000  0.00000  1.0000
  Mn  Mn2       1.0  0.50000  0.50000  0.50000  1.0000
  Mn  Mn3       1.0  0.00000  0.00000  0.00000  1.0000
  Mn  Mn4       1.0  0.50000  0.00000  0.50000  1.0000
  O   O1        1.0  0.10041  0.56903  0.22316  1.0000
  O   O2        1.0  0.39959  0.43097  0.72316  1.0000
  O   O3        1.0  0.89959  0.06903  0.77684  1.0000
  O   O4        1.0  0.60041  0.93097  0.27684  1.0000
  O   O5        1.0  0.89959  0.43097  0.77684  1.0000
  O   O6        1.0  0.60041  0.56903  0.27684  1.0000
  O   O7        1.0  0.10041  0.93097  0.22316  1.0000
  O   O8        1.0  0.39959  0.06903  0.72316  1.0000
  O   O9        1.0  0.27738  0.56449  0.41719  1.0000
  O   O10       1.0  0.22262  0.43551  0.91719  1.0000
  O   O11       1.0  0.72262  0.06449  0.58281  1.0000
  O   O12       1.0  0.77738  0.93551  0.08281  1.0000
  O   O13       1.0  0.72262  0.43551  0.58281  1.0000
  O   O14       1.0  0.77738  0.56449  0.08281  1.0000
  O   O15       1.0  0.27738  0.93551  0.41719  1.0000
  O   O16       1.0  0.22262  0.06449  0.91719  1.0000
  O   O17       1.0  0.96519  0.34217  0.13075  1.0000
  O   O18       1.0  0.53481  0.65783  0.63075  1.0000
  O   O19       1.0  0.03481  0.84217  0.86925  1.0000
  O   O20       1.0  0.46519  0.15783  0.36925  1.0000
  O   O21       1.0  0.03481  0.65783  0.86925  1.0000
  O   O22       1.0  0.46519  0.34217  0.36925  1.0000
  O   O23       1.0  0.96519  0.15783  0.13075  1.0000
  O   O24       1.0  0.53481  0.84217  0.63075  1.0000
  C   C1        1.0  0.21930  0.53252  0.28500  1.0000
  C   C2        1.0  0.28070  0.46748  0.78500  1.0000
  C   C3        1.0  0.78070  0.03252  0.71500  1.0000
  C   C4        1.0  0.71930  0.96748  0.21500  1.0000
  C   C5        1.0  0.78070  0.46748  0.71500  1.0000
  C   C6        1.0  0.71930  0.53252  0.21500  1.0000
  C   C7        1.0  0.21930  0.96748  0.28500  1.0000
  C   C8        1.0  0.28070  0.03252  0.78500  1.0000
  C   C9        1.0  0.98130  0.25000  0.06310  1.0000
  C   C10       1.0  0.51870  0.75000  0.56310  1.0000
  C   C11       1.0  0.01870  0.75000  0.93690  1.0000
  C   C12       1.0  0.48130  0.25000  0.43690  1.0000
  H   H1        1.0  0.27100  0.47750  0.22700  1.0000
  H   H2        1.0  0.22900  0.52250  0.72700  1.0000
  H   H3        1.0  0.72900  0.97750  0.77300  1.0000
  H   H4        1.0  0.77100  0.02250  0.27300  1.0000
  H   H5        1.0  0.72900  0.52250  0.77300  1.0000
  H   H6        1.0  0.77100  0.47750  0.27300  1.0000
  H   H7        1.0  0.27100  0.02250  0.22700  1.0000
  H   H8        1.0  0.22900  0.97750  0.72700  1.0000
  H   H9        1.0  0.00200  0.25000  0.94400  1.0000
  H   H10       1.0  0.49800  0.75000  0.44400  1.0000
  H   H11       1.0  0.99800  0.75000  0.05600  1.0000
  H   H12       1.0  0.50200  0.25000  0.55600  1.0000
