data_image0
_chemical_formula_structural       Mn4O24C4H4C4H4C4H4
_chemical_formula_sum              "Mn4 O24 C12 H12"
_cell_length_a       9.086
_cell_length_b       8.2152
_cell_length_c       12.0295
_cell_angle_alpha    90
_cell_angle_beta     90
_cell_angle_gamma    90

_space_group_name_H-M_alt    "P 1"
_space_group_IT_number       1

loop_
  _space_group_symop_operation_xyz
  'x, y, z'

loop_
  _atom_site_type_symbol
  _atom_site_label
  _atom_site_symmetry_multiplicity
  _atom_site_fract_x
  _atom_site_fract_y
  _atom_site_fract_z
  _atom_site_occupancy
  Mn  Mn1       1.0  0.02840  0.99728  0.49986  1.0000
  Mn  Mn2       1.0  0.97160  0.00272  0.99986  1.0000
  Mn  Mn3       1.0  0.52840  0.50272  0.49986  1.0000
  Mn  Mn4       1.0  0.47160  0.49728  0.99986  1.0000
  O   O1        1.0  0.81862  0.09910  0.56342  1.0000
  O   O2        1.0  0.18138  0.90090  0.06342  1.0000
  O   O3        1.0  0.31862  0.40090  0.56342  1.0000
  O   O4        1.0  0.68138  0.59910  0.06342  1.0000
  O   O5        1.0  0.64738  0.29150  0.56279  1.0000
  O   O6        1.0  0.35262  0.70850  0.06279  1.0000
  O   O7        1.0  0.14738  0.20850  0.56279  1.0000
  O   O8        1.0  0.85262  0.79150  0.06279  1.0000
  O   O9        1.0  0.91637  0.78081  0.43639  1.0000
  O   O10       1.0  0.08363  0.21919  0.93639  1.0000
  O   O11       1.0  0.41637  0.71919  0.43639  1.0000
  O   O12       1.0  0.58363  0.28081  0.93639  1.0000
  O   O13       1.0  0.73804  0.59688  0.43377  1.0000
  O   O14       1.0  0.26196  0.40312  0.93377  1.0000
  O   O15       1.0  0.23804  0.90312  0.43377  1.0000
  O   O16       1.0  0.76196  0.09688  0.93377  1.0000
  O   O17       1.0  0.04636  0.87120  0.66104  1.0000
  O   O18       1.0  0.95364  0.12880  0.16104  1.0000
  O   O19       1.0  0.54636  0.62880  0.66104  1.0000
  O   O20       1.0  0.45364  0.37120  0.16104  1.0000
  O   O21       1.0  0.00966  0.87770  0.84295  1.0000
  O   O22       1.0  0.99034  0.12230  0.34295  1.0000
  O   O23       1.0  0.50966  0.62230  0.84295  1.0000
  O   O24       1.0  0.49034  0.37770  0.34295  1.0000
  C   C1        1.0  0.76370  0.23010  0.52910  1.0000
  C   C2        1.0  0.23630  0.76990  0.02910  1.0000
  C   C3        1.0  0.26370  0.26990  0.52910  1.0000
  C   C4        1.0  0.73630  0.73010  0.02910  1.0000
  H   H1        1.0  0.81450  0.28560  0.47380  1.0000
  H   H2        1.0  0.18550  0.71440  0.97380  1.0000
  H   H3        1.0  0.31450  0.21440  0.47380  1.0000
  H   H4        1.0  0.68550  0.78560  0.97380  1.0000
  C   C5        1.0  0.80370  0.71770  0.47270  1.0000
  C   C6        1.0  0.19630  0.28230  0.97270  1.0000
  C   C7        1.0  0.30370  0.78230  0.47270  1.0000
  C   C8        1.0  0.69630  0.21770  0.97270  1.0000
  H   H5        1.0  0.76300  0.76480  0.53590  1.0000
  H   H6        1.0  0.23700  0.23520  0.03590  1.0000
  H   H7        1.0  0.26300  0.73520  0.53590  1.0000
  H   H8        1.0  0.73700  0.26480  0.03590  1.0000
  C   C9        1.0  0.01280  0.94190  0.75000  1.0000
  C   C10       1.0  0.98720  0.05810  0.25000  1.0000
  C   C11       1.0  0.51280  0.55810  0.75000  1.0000
  C   C12       1.0  0.48720  0.44190  0.25000  1.0000
  H   H9        1.0  0.98830  0.05160  0.74560  1.0000
  H   H10       1.0  0.01170  0.94840  0.24560  1.0000
  H   H11       1.0  0.48830  0.44840  0.74560  1.0000
  H   H12       1.0  0.51170  0.55160  0.24560  1.0000
