data_image0
_chemical_formula_structural       Mn4O24C4H4C4H4C4H4
_chemical_formula_sum              "Mn4 O24 C12 H12"
_cell_length_a       9.0353
_cell_length_b       8.2126
_cell_length_c       11.981
_cell_angle_alpha    90
_cell_angle_beta     90
_cell_angle_gamma    90

_space_group_name_H-M_alt    "P 1"
_space_group_IT_number       1

loop_
  _space_group_symop_operation_xyz
  'x, y, z'

loop_
  _atom_site_type_symbol
  _atom_site_label
  _atom_site_symmetry_multiplicity
  _atom_site_fract_x
  _atom_site_fract_y
  _atom_site_fract_z
  _atom_site_occupancy
  Mn  Mn1       1.0  0.03096  0.99709  0.49991  1.0000
  Mn  Mn2       1.0  0.96904  0.00291  0.99991  1.0000
  Mn  Mn3       1.0  0.53096  0.50291  0.49991  1.0000
  Mn  Mn4       1.0  0.46904  0.49709  0.99991  1.0000
  O   O1        1.0  0.81918  0.09730  0.56357  1.0000
  O   O2        1.0  0.18082  0.90270  0.06357  1.0000
  O   O3        1.0  0.31918  0.40270  0.56357  1.0000
  O   O4        1.0  0.68082  0.59730  0.06357  1.0000
  O   O5        1.0  0.64835  0.29220  0.56502  1.0000
  O   O6        1.0  0.35165  0.70780  0.06502  1.0000
  O   O7        1.0  0.14835  0.20780  0.56502  1.0000
  O   O8        1.0  0.85165  0.79220  0.06502  1.0000
  O   O9        1.0  0.92071  0.78070  0.43401  1.0000
  O   O10       1.0  0.07929  0.21930  0.93401  1.0000
  O   O11       1.0  0.42071  0.71930  0.43401  1.0000
  O   O12       1.0  0.57929  0.28070  0.93401  1.0000
  O   O13       1.0  0.74215  0.59450  0.43337  1.0000
  O   O14       1.0  0.25785  0.40550  0.93337  1.0000
  O   O15       1.0  0.24215  0.90550  0.43337  1.0000
  O   O16       1.0  0.75785  0.09450  0.93337  1.0000
  O   O17       1.0  0.04721  0.86840  0.66089  1.0000
  O   O18       1.0  0.95279  0.13160  0.16089  1.0000
  O   O19       1.0  0.54721  0.63160  0.66089  1.0000
  O   O20       1.0  0.45279  0.36840  0.16089  1.0000
  O   O21       1.0  0.00680  0.87500  0.84361  1.0000
  O   O22       1.0  0.99320  0.12500  0.34361  1.0000
  O   O23       1.0  0.50680  0.62500  0.84361  1.0000
  O   O24       1.0  0.49320  0.37500  0.34361  1.0000
  C   C1        1.0  0.76480  0.22950  0.52949  1.0000
  C   C2        1.0  0.23520  0.77050  0.02949  1.0000
  C   C3        1.0  0.26480  0.27050  0.52949  1.0000
  C   C4        1.0  0.73520  0.72950  0.02949  1.0000
  H   H1        1.0  0.81550  0.28460  0.47350  1.0000
  H   H2        1.0  0.18450  0.71540  0.97350  1.0000
  H   H3        1.0  0.31550  0.21540  0.47350  1.0000
  H   H4        1.0  0.68450  0.78460  0.97350  1.0000
  C   C5        1.0  0.80780  0.71760  0.47254  1.0000
  C   C6        1.0  0.19220  0.28240  0.97254  1.0000
  C   C7        1.0  0.30780  0.78240  0.47254  1.0000
  C   C8        1.0  0.69220  0.21760  0.97254  1.0000
  H   H5        1.0  0.76750  0.76490  0.53620  1.0000
  H   H6        1.0  0.23250  0.23510  0.03620  1.0000
  H   H7        1.0  0.26750  0.73510  0.53620  1.0000
  H   H8        1.0  0.73250  0.26490  0.03620  1.0000
  C   C9        1.0  0.01150  0.94010  0.74960  1.0000
  C   C10       1.0  0.98850  0.05990  0.24960  1.0000
  C   C11       1.0  0.51150  0.55990  0.74960  1.0000
  C   C12       1.0  0.48850  0.44010  0.24960  1.0000
  H   H9        1.0  0.98680  0.04980  0.74480  1.0000
  H   H10       1.0  0.01320  0.95020  0.24480  1.0000
  H   H11       1.0  0.48680  0.45020  0.74480  1.0000
  H   H12       1.0  0.51320  0.54980  0.24480  1.0000
