data_image0
_chemical_formula_structural       Mn4O24C8H8C4H4
_chemical_formula_sum              "Mn4 O24 C12 H12"
_cell_length_a       8.711
_cell_length_b       12.3162
_cell_length_c       8.8734
_cell_angle_alpha    90
_cell_angle_beta     90
_cell_angle_gamma    90

_space_group_name_H-M_alt    "P 1"
_space_group_IT_number       1

loop_
  _space_group_symop_operation_xyz
  'x, y, z'

loop_
  _atom_site_type_symbol
  _atom_site_label
  _atom_site_symmetry_multiplicity
  _atom_site_fract_x
  _atom_site_fract_y
  _atom_site_fract_z
  _atom_site_occupancy
  Mn  Mn1       1.0  0.00000  0.50000  0.50000  1.0000
  Mn  Mn2       1.0  0.50000  0.50000  0.00000  1.0000
  Mn  Mn3       1.0  0.50000  0.00000  0.00000  1.0000
  Mn  Mn4       1.0  0.00000  0.00000  0.50000  1.0000
  O   O1        1.0  0.21600  0.55022  0.39190  1.0000
  O   O2        1.0  0.28400  0.44978  0.89190  1.0000
  O   O3        1.0  0.71600  0.94978  0.10810  1.0000
  O   O4        1.0  0.78400  0.05022  0.60810  1.0000
  O   O5        1.0  0.78400  0.44978  0.60810  1.0000
  O   O6        1.0  0.71600  0.55022  0.10810  1.0000
  O   O7        1.0  0.28400  0.05022  0.89190  1.0000
  O   O8        1.0  0.21600  0.94978  0.39190  1.0000
  O   O9        1.0  0.01830  0.33960  0.40330  1.0000
  O   O10       1.0  0.48170  0.66040  0.90330  1.0000
  O   O11       1.0  0.51830  0.16040  0.09670  1.0000
  O   O12       1.0  0.98170  0.83960  0.59670  1.0000
  O   O13       1.0  0.98170  0.66040  0.59670  1.0000
  O   O14       1.0  0.51830  0.33960  0.09670  1.0000
  O   O15       1.0  0.48170  0.83960  0.90330  1.0000
  O   O16       1.0  0.01830  0.16040  0.40330  1.0000
  O   O17       1.0  0.38280  0.55570  0.20610  1.0000
  O   O18       1.0  0.11720  0.44430  0.70610  1.0000
  O   O19       1.0  0.88280  0.94430  0.29390  1.0000
  O   O20       1.0  0.61720  0.05570  0.79390  1.0000
  O   O21       1.0  0.61720  0.44430  0.79390  1.0000
  O   O22       1.0  0.88280  0.55570  0.29390  1.0000
  O   O23       1.0  0.11720  0.05570  0.70610  1.0000
  O   O24       1.0  0.38280  0.94430  0.20610  1.0000
  C   C1        1.0  0.27410  0.51450  0.27460  1.0000
  C   C2        1.0  0.22590  0.48550  0.77460  1.0000
  C   C3        1.0  0.77410  0.98550  0.22540  1.0000
  C   C4        1.0  0.72590  0.01450  0.72540  1.0000
  C   C5        1.0  0.72590  0.48550  0.72540  1.0000
  C   C6        1.0  0.77410  0.51450  0.22540  1.0000
  C   C7        1.0  0.22590  0.01450  0.77460  1.0000
  C   C8        1.0  0.27410  0.98550  0.27460  1.0000
  H   H1        1.0  0.23220  0.45110  0.23510  1.0000
  H   H2        1.0  0.26780  0.54890  0.73510  1.0000
  H   H3        1.0  0.73220  0.04890  0.26490  1.0000
  H   H4        1.0  0.76780  0.95110  0.76490  1.0000
  H   H5        1.0  0.76780  0.54890  0.76490  1.0000
  H   H6        1.0  0.73220  0.45110  0.26490  1.0000
  H   H7        1.0  0.26780  0.95110  0.73510  1.0000
  H   H8        1.0  0.23220  0.04890  0.23510  1.0000
  C   C9        1.0  0.00260  0.25000  0.46120  1.0000
  C   C10       1.0  0.49740  0.75000  0.96120  1.0000
  C   C11       1.0  0.50260  0.25000  0.03880  1.0000
  C   C12       1.0  0.99740  0.75000  0.53880  1.0000
  H   H9        1.0  0.97090  0.25000  0.56120  1.0000
  H   H10       1.0  0.52910  0.75000  0.06120  1.0000
  H   H11       1.0  0.47090  0.25000  0.93880  1.0000
  H   H12       1.0  0.02910  0.75000  0.43880  1.0000
