data_image0
_chemical_formula_structural       Mn4O24C8H8C4H4
_chemical_formula_sum              "Mn4 O24 C12 H12"
_cell_length_a       8.761
_cell_length_b       12.3507
_cell_length_c       8.8118
_cell_angle_alpha    90
_cell_angle_beta     90
_cell_angle_gamma    90

_space_group_name_H-M_alt    "P 1"
_space_group_IT_number       1

loop_
  _space_group_symop_operation_xyz
  'x, y, z'

loop_
  _atom_site_type_symbol
  _atom_site_label
  _atom_site_symmetry_multiplicity
  _atom_site_fract_x
  _atom_site_fract_y
  _atom_site_fract_z
  _atom_site_occupancy
  Mn  Mn1       1.0  0.00000  0.50000  0.50000  1.0000
  Mn  Mn2       1.0  0.50000  0.50000  0.00000  1.0000
  Mn  Mn3       1.0  0.50000  0.00000  0.00000  1.0000
  Mn  Mn4       1.0  0.00000  0.00000  0.50000  1.0000
  O   O1        1.0  0.21490  0.54900  0.39080  1.0000
  O   O2        1.0  0.28510  0.45100  0.89080  1.0000
  O   O3        1.0  0.71490  0.95100  0.10920  1.0000
  O   O4        1.0  0.78510  0.04900  0.60920  1.0000
  O   O5        1.0  0.78510  0.45100  0.60920  1.0000
  O   O6        1.0  0.71490  0.54900  0.10920  1.0000
  O   O7        1.0  0.28510  0.04900  0.89080  1.0000
  O   O8        1.0  0.21490  0.95100  0.39080  1.0000
  O   O9        1.0  0.01700  0.33880  0.40460  1.0000
  O   O10       1.0  0.48300  0.66120  0.90460  1.0000
  O   O11       1.0  0.51700  0.16120  0.09540  1.0000
  O   O12       1.0  0.98300  0.83880  0.59540  1.0000
  O   O13       1.0  0.98300  0.66120  0.59540  1.0000
  O   O14       1.0  0.51700  0.33880  0.09540  1.0000
  O   O15       1.0  0.48300  0.83880  0.90460  1.0000
  O   O16       1.0  0.01700  0.16120  0.40460  1.0000
  O   O17       1.0  0.38290  0.55280  0.20720  1.0000
  O   O18       1.0  0.11710  0.44720  0.70720  1.0000
  O   O19       1.0  0.88290  0.94720  0.29280  1.0000
  O   O20       1.0  0.61710  0.05280  0.79280  1.0000
  O   O21       1.0  0.61710  0.44720  0.79280  1.0000
  O   O22       1.0  0.88290  0.55280  0.29280  1.0000
  O   O23       1.0  0.11710  0.05280  0.70720  1.0000
  O   O24       1.0  0.38290  0.94720  0.20720  1.0000
  C   C1        1.0  0.27170  0.51470  0.27250  1.0000
  C   C2        1.0  0.22830  0.48530  0.77250  1.0000
  C   C3        1.0  0.77170  0.98530  0.22750  1.0000
  C   C4        1.0  0.72830  0.01470  0.72750  1.0000
  C   C5        1.0  0.72830  0.48530  0.72750  1.0000
  C   C6        1.0  0.77170  0.51470  0.22750  1.0000
  C   C7        1.0  0.22830  0.01470  0.77250  1.0000
  C   C8        1.0  0.27170  0.98530  0.27250  1.0000
  H   H1        1.0  0.22980  0.45130  0.23300  1.0000
  H   H2        1.0  0.27020  0.54870  0.73300  1.0000
  H   H3        1.0  0.72980  0.04870  0.26700  1.0000
  H   H4        1.0  0.77020  0.95130  0.76700  1.0000
  H   H5        1.0  0.77020  0.54870  0.76700  1.0000
  H   H6        1.0  0.72980  0.45130  0.26700  1.0000
  H   H7        1.0  0.27020  0.95130  0.73300  1.0000
  H   H8        1.0  0.22980  0.04870  0.23300  1.0000
  C   C9        1.0  0.00440  0.25000  0.46130  1.0000
  C   C10       1.0  0.49560  0.75000  0.96130  1.0000
  C   C11       1.0  0.50440  0.25000  0.03870  1.0000
  C   C12       1.0  0.99560  0.75000  0.53870  1.0000
  H   H9        1.0  0.97280  0.25000  0.56130  1.0000
  H   H10       1.0  0.52720  0.75000  0.06130  1.0000
  H   H11       1.0  0.47280  0.25000  0.93870  1.0000
  H   H12       1.0  0.02720  0.75000  0.43870  1.0000
