data_image0
_chemical_formula_structural       Mn4O4C4H4Mn4O4C4H4O4C4H4O4C4H4O4C4H4O4C4H4O24
_chemical_formula_sum              "Mn8 O48 C24 H24"
_cell_length_a       12.3642
_cell_length_b       12.2823
_cell_length_c       12.373
_cell_angle_alpha    90
_cell_angle_beta     92.222
_cell_angle_gamma    90

_space_group_name_H-M_alt    "P 1"
_space_group_IT_number       1

loop_
  _space_group_symop_operation_xyz
  'x, y, z'

loop_
  _atom_site_type_symbol
  _atom_site_label
  _atom_site_symmetry_multiplicity
  _atom_site_fract_x
  _atom_site_fract_y
  _atom_site_fract_z
  _atom_site_occupancy
  Mn  Mn1       1.0  0.75601  0.52755  0.24780  1.0000
  Mn  Mn2       1.0  0.74399  0.02755  0.25220  1.0000
  Mn  Mn3       1.0  0.24399  0.47245  0.75220  1.0000
  Mn  Mn4       1.0  0.25601  0.97245  0.74780  1.0000
  O   O1        1.0  0.79935  0.58218  0.08478  1.0000
  O   O2        1.0  0.70065  0.08218  0.41522  1.0000
  O   O3        1.0  0.20065  0.41782  0.91522  1.0000
  O   O4        1.0  0.29935  0.91782  0.58478  1.0000
  C   C1        1.0  0.77620  0.52920  0.99980  1.0000
  C   C2        1.0  0.72380  0.02920  0.50020  1.0000
  C   C3        1.0  0.22380  0.47080  0.00020  1.0000
  C   C4        1.0  0.27620  0.97080  0.49980  1.0000
  H   H1        1.0  0.73670  0.46340  0.00660  1.0000
  H   H2        1.0  0.76330  0.96340  0.49340  1.0000
  H   H3        1.0  0.26330  0.53660  0.99340  1.0000
  H   H4        1.0  0.23670  0.03660  0.50660  1.0000
  Mn  Mn5       1.0  0.74202  0.50079  0.74876  1.0000
  Mn  Mn6       1.0  0.75798  0.00079  0.75124  1.0000
  Mn  Mn7       1.0  0.25798  0.49921  0.25124  1.0000
  Mn  Mn8       1.0  0.24202  0.99921  0.24876  1.0000
  O   O5        1.0  0.70593  0.46668  0.40440  1.0000
  O   O6        1.0  0.79407  0.96668  0.09560  1.0000
  O   O7        1.0  0.29407  0.53332  0.59560  1.0000
  O   O8        1.0  0.20593  0.03332  0.90440  1.0000
  C   C5        1.0  0.71990  0.50390  0.49740  1.0000
  C   C6        1.0  0.78010  0.00390  0.00260  1.0000
  C   C7        1.0  0.28010  0.49610  0.50260  1.0000
  C   C8        1.0  0.21990  0.99610  0.99740  1.0000
  H   H5        1.0  0.76000  0.56960  0.50570  1.0000
  H   H6        1.0  0.74000  0.06960  0.99430  1.0000
  H   H7        1.0  0.24000  0.43040  0.49430  1.0000
  H   H8        1.0  0.26000  0.93040  0.00570  1.0000
  O   O9        1.0  0.69572  0.68546  0.28830  1.0000
  O   O10       1.0  0.80428  0.18546  0.21170  1.0000
  O   O11       1.0  0.30428  0.31454  0.71170  1.0000
  O   O12       1.0  0.19572  0.81454  0.78830  1.0000
  C   C9        1.0  0.72960  0.77823  0.26790  1.0000
  C   C10       1.0  0.77040  0.27823  0.23210  1.0000
  C   C11       1.0  0.27040  0.22177  0.73210  1.0000
  C   C12       1.0  0.22960  0.72177  0.76790  1.0000
  H   H9        1.0  0.79580  0.78240  0.23160  1.0000
  H   H10       1.0  0.70420  0.28240  0.26840  1.0000
  H   H11       1.0  0.20420  0.21760  0.76840  1.0000
  H   H12       1.0  0.29580  0.71760  0.73160  1.0000
  O   O13       1.0  0.40415  0.52467  0.81756  1.0000
  O   O14       1.0  0.09585  0.02467  0.68244  1.0000
  O   O15       1.0  0.59585  0.47533  0.18244  1.0000
  O   O16       1.0  0.90415  0.97533  0.31756  1.0000
  C   C13       1.0  0.76910  0.75140  0.73420  1.0000
  C   C14       1.0  0.73090  0.25140  0.76580  1.0000
  C   C15       1.0  0.23090  0.24860  0.26580  1.0000
  C   C16       1.0  0.26910  0.74860  0.23420  1.0000
  H   H13       1.0  0.73700  0.75230  0.80270  1.0000
  H   H14       1.0  0.76300  0.25230  0.69730  1.0000
  H   H15       1.0  0.26300  0.24770  0.19730  1.0000
  H   H16       1.0  0.23700  0.74770  0.30270  1.0000
  O   O17       1.0  0.68553  0.86649  0.29033  1.0000
  O   O18       1.0  0.81447  0.36649  0.20967  1.0000
  O   O19       1.0  0.31447  0.13351  0.70967  1.0000
  O   O20       1.0  0.18553  0.63351  0.79033  1.0000
  C   C17       1.0  0.49340  0.49930  0.78230  1.0000
  C   C18       1.0  0.00660  0.99930  0.71770  1.0000
  C   C19       1.0  0.50660  0.50070  0.21770  1.0000
  C   C20       1.0  0.99340  0.00070  0.28230  1.0000
  H   H17       1.0  0.49630  0.43650  0.73770  1.0000
  H   H18       1.0  0.00370  0.93650  0.76230  1.0000
  H   H19       1.0  0.50370  0.56350  0.26230  1.0000
  H   H20       1.0  0.99630  0.06350  0.23770  1.0000
  O   O21       1.0  0.07910  0.42084  0.69792  1.0000
  O   O22       1.0  0.42090  0.92084  0.80208  1.0000
  O   O23       1.0  0.92090  0.57916  0.30208  1.0000
  O   O24       1.0  0.57910  0.07916  0.19792  1.0000
  C   C21       1.0  0.99470  0.46690  0.73000  1.0000
  C   C22       1.0  0.50530  0.96690  0.77000  1.0000
  C   C23       1.0  0.00530  0.53310  0.27000  1.0000
  C   C24       1.0  0.49470  0.03310  0.23000  1.0000
  H   H21       1.0  0.00350  0.52890  0.77540  1.0000
  H   H22       1.0  0.49650  0.02890  0.72460  1.0000
  H   H23       1.0  0.99650  0.47110  0.22460  1.0000
  H   H24       1.0  0.50350  0.97110  0.27540  1.0000
  O   O25       1.0  0.77839  0.66050  0.68961  1.0000
  O   O26       1.0  0.72161  0.16050  0.81039  1.0000
  O   O27       1.0  0.22161  0.33950  0.31039  1.0000
  O   O28       1.0  0.27839  0.83950  0.18961  1.0000
  O   O29       1.0  0.58002  0.55055  0.80122  1.0000
  O   O30       1.0  0.91998  0.05055  0.69878  1.0000
  O   O31       1.0  0.41998  0.44945  0.19878  1.0000
  O   O32       1.0  0.08002  0.94945  0.30122  1.0000
  O   O33       1.0  0.90105  0.43650  0.70597  1.0000
  O   O34       1.0  0.59895  0.93650  0.79403  1.0000
  O   O35       1.0  0.09895  0.56350  0.29403  1.0000
  O   O36       1.0  0.40105  0.06350  0.20597  1.0000
  O   O37       1.0  0.68456  0.46078  0.58121  1.0000
  O   O38       1.0  0.81544  0.96078  0.91879  1.0000
  O   O39       1.0  0.31544  0.53922  0.41879  1.0000
  O   O40       1.0  0.18456  0.03922  0.08121  1.0000
  O   O41       1.0  0.79785  0.84000  0.69740  1.0000
  O   O42       1.0  0.70215  0.34000  0.80260  1.0000
  O   O43       1.0  0.20215  0.16000  0.30260  1.0000
  O   O44       1.0  0.29785  0.66000  0.19740  1.0000
  O   O45       1.0  0.80148  0.55700  0.90796  1.0000
  O   O46       1.0  0.69852  0.05700  0.59204  1.0000
  O   O47       1.0  0.19852  0.44300  0.09204  1.0000
  O   O48       1.0  0.30148  0.94300  0.40796  1.0000
