data_image0
_chemical_formula_structural       Mn4O24C12H12
_chemical_formula_sum              "Mn4 O24 C12 H12"
_cell_length_a       8.704
_cell_length_b       12.308
_cell_length_c       8.87
_cell_angle_alpha    90
_cell_angle_beta     90
_cell_angle_gamma    90

_space_group_name_H-M_alt    "P 1"
_space_group_IT_number       1

loop_
  _space_group_symop_operation_xyz
  'x, y, z'

loop_
  _atom_site_type_symbol
  _atom_site_label
  _atom_site_symmetry_multiplicity
  _atom_site_fract_x
  _atom_site_fract_y
  _atom_site_fract_z
  _atom_site_occupancy
  Mn  Mn1       1.0  0.00000  0.00000  0.00000  1.0000
  Mn  Mn2       1.0  0.50000  0.00000  0.50000  1.0000
  Mn  Mn3       1.0  0.50000  0.50000  0.50000  1.0000
  Mn  Mn4       1.0  0.00000  0.50000  0.00000  1.0000
  O   O1        1.0  0.11652  0.94355  0.79320  1.0000
  O   O2        1.0  0.38348  0.05645  0.29320  1.0000
  O   O3        1.0  0.61652  0.55645  0.70680  1.0000
  O   O4        1.0  0.88348  0.44355  0.20680  1.0000
  O   O5        1.0  0.88348  0.05645  0.20680  1.0000
  O   O6        1.0  0.61652  0.94355  0.70680  1.0000
  O   O7        1.0  0.38348  0.44355  0.29320  1.0000
  O   O8        1.0  0.11652  0.55645  0.79320  1.0000
  O   O9        1.0  0.28324  0.94939  0.60688  1.0000
  O   O10       1.0  0.21676  0.05061  0.10688  1.0000
  O   O11       1.0  0.78324  0.55061  0.89312  1.0000
  O   O12       1.0  0.71676  0.44939  0.39312  1.0000
  O   O13       1.0  0.71676  0.05061  0.39312  1.0000
  O   O14       1.0  0.78324  0.94939  0.89312  1.0000
  O   O15       1.0  0.21676  0.44939  0.10688  1.0000
  O   O16       1.0  0.28324  0.55061  0.60688  1.0000
  O   O17       1.0  0.01972  0.84025  0.09734  1.0000
  O   O18       1.0  0.48028  0.15975  0.59734  1.0000
  O   O19       1.0  0.51972  0.65975  0.40266  1.0000
  O   O20       1.0  0.98028  0.34025  0.90266  1.0000
  O   O21       1.0  0.98028  0.15975  0.90266  1.0000
  O   O22       1.0  0.51972  0.84025  0.40266  1.0000
  O   O23       1.0  0.48028  0.34025  0.59734  1.0000
  O   O24       1.0  0.01972  0.65975  0.09734  1.0000
  C   C1        1.0  0.22553  0.98543  0.72467  1.0000
  C   C2        1.0  0.27447  0.01457  0.22467  1.0000
  C   C3        1.0  0.72553  0.51457  0.77533  1.0000
  C   C4        1.0  0.77447  0.48543  0.27533  1.0000
  C   C5        1.0  0.77447  0.01457  0.27533  1.0000
  C   C6        1.0  0.72553  0.98543  0.77533  1.0000
  C   C7        1.0  0.27447  0.48543  0.22467  1.0000
  C   C8        1.0  0.22553  0.51457  0.72467  1.0000
  C   C9        1.0  0.00187  0.75000  0.03830  1.0000
  C   C10       1.0  0.49813  0.25000  0.53830  1.0000
  C   C11       1.0  0.50187  0.75000  0.46170  1.0000
  C   C12       1.0  0.99813  0.25000  0.96170  1.0000
  H   H1        1.0  0.26810  0.04850  0.76470  1.0000
  H   H2        1.0  0.23190  0.95150  0.26470  1.0000
  H   H3        1.0  0.76810  0.45150  0.73530  1.0000
  H   H4        1.0  0.73190  0.54850  0.23530  1.0000
  H   H5        1.0  0.73190  0.95150  0.23530  1.0000
  H   H6        1.0  0.76810  0.04850  0.73530  1.0000
  H   H7        1.0  0.23190  0.54850  0.26470  1.0000
  H   H8        1.0  0.26810  0.45150  0.76470  1.0000
  H   H9        1.0  0.97040  0.75000  0.93810  1.0000
  H   H10       1.0  0.52960  0.25000  0.43810  1.0000
  H   H11       1.0  0.47040  0.75000  0.56190  1.0000
  H   H12       1.0  0.02960  0.25000  0.06190  1.0000
