data_image0
_chemical_formula_structural       Cd4O24C20H4C8H4C8H4
_chemical_formula_sum              "Cd4 O24 C36 H12"
_cell_length_a       10.0957
_cell_length_b       14.3518
_cell_length_c       12.9606
_cell_angle_alpha    90
_cell_angle_beta     105.77
_cell_angle_gamma    90

_space_group_name_H-M_alt    "P 1"
_space_group_IT_number       1

loop_
  _space_group_symop_operation_xyz
  'x, y, z'

loop_
  _atom_site_type_symbol
  _atom_site_label
  _atom_site_symmetry_multiplicity
  _atom_site_fract_x
  _atom_site_fract_y
  _atom_site_fract_z
  _atom_site_occupancy
  Cd  Cd1       1.0  0.09123  0.06623  0.93953  1.0000
  Cd  Cd2       1.0  0.40877  0.56623  0.56047  1.0000
  Cd  Cd3       1.0  0.90877  0.93377  0.06047  1.0000
  Cd  Cd4       1.0  0.59123  0.43377  0.43953  1.0000
  O   O1        1.0  0.30390  0.09852  0.93140  1.0000
  O   O2        1.0  0.19610  0.59852  0.56860  1.0000
  O   O3        1.0  0.69610  0.90148  0.06860  1.0000
  O   O4        1.0  0.80390  0.40148  0.43140  1.0000
  O   O5        1.0  0.18950  0.21320  0.84150  1.0000
  O   O6        1.0  0.31050  0.71320  0.65850  1.0000
  O   O7        1.0  0.81050  0.78680  0.15850  1.0000
  O   O8        1.0  0.68950  0.28680  0.34150  1.0000
  O   O9        1.0  0.45300  0.44168  0.66750  1.0000
  O   O10       1.0  0.04700  0.94168  0.83250  1.0000
  O   O11       1.0  0.54700  0.55832  0.33250  1.0000
  O   O12       1.0  0.95300  0.05832  0.16750  1.0000
  O   O13       1.0  0.60060  0.36335  0.59716  1.0000
  O   O14       1.0  0.89940  0.86335  0.90284  1.0000
  O   O15       1.0  0.39940  0.63665  0.40284  1.0000
  O   O16       1.0  0.10060  0.13665  0.09716  1.0000
  O   O17       1.0  0.89570  0.13817  0.86203  1.0000
  O   O18       1.0  0.60430  0.63817  0.63797  1.0000
  O   O19       1.0  0.10430  0.86183  0.13797  1.0000
  O   O20       1.0  0.39570  0.36183  0.36203  1.0000
  O   O21       1.0  0.78110  0.04311  0.94300  1.0000
  O   O22       1.0  0.71890  0.54311  0.55700  1.0000
  O   O23       1.0  0.21890  0.95689  0.05700  1.0000
  O   O24       1.0  0.28110  0.45689  0.44300  1.0000
  C   C1        1.0  0.29570  0.17000  0.87400  1.0000
  C   C2        1.0  0.20430  0.67000  0.62600  1.0000
  C   C3        1.0  0.70430  0.83000  0.12600  1.0000
  C   C4        1.0  0.79570  0.33000  0.37400  1.0000
  C   C5        1.0  0.53010  0.37420  0.66270  1.0000
  C   C6        1.0  0.96990  0.87420  0.83730  1.0000
  C   C7        1.0  0.46990  0.62580  0.33730  1.0000
  C   C8        1.0  0.03010  0.12580  0.16270  1.0000
  C   C9        1.0  0.78930  0.11210  0.88710  1.0000
  C   C10       1.0  0.71070  0.61210  0.61290  1.0000
  C   C11       1.0  0.21070  0.88790  0.11290  1.0000
  C   C12       1.0  0.28930  0.38790  0.38710  1.0000
  C   C13       1.0  0.42460  0.19950  0.84470  1.0000
  C   C14       1.0  0.07540  0.69950  0.65530  1.0000
  C   C15       1.0  0.57540  0.80050  0.15530  1.0000
  C   C16       1.0  0.92460  0.30050  0.34470  1.0000
  C   C17       1.0  0.42280  0.27520  0.77780  1.0000
  C   C18       1.0  0.07720  0.77520  0.72220  1.0000
  C   C19       1.0  0.57720  0.72480  0.22220  1.0000
  C   C20       1.0  0.92280  0.22480  0.27780  1.0000
  H   H1        1.0  0.34420  0.31190  0.75650  1.0000
  H   H2        1.0  0.15580  0.81190  0.74350  1.0000
  H   H3        1.0  0.65580  0.68810  0.24350  1.0000
  H   H4        1.0  0.84420  0.18810  0.25650  1.0000
  C   C21       1.0  0.53740  0.29680  0.74230  1.0000
  C   C22       1.0  0.96260  0.79680  0.75770  1.0000
  C   C23       1.0  0.46260  0.70320  0.25770  1.0000
  C   C24       1.0  0.03740  0.20320  0.24230  1.0000
  C   C25       1.0  0.65540  0.24310  0.77700  1.0000
  C   C26       1.0  0.84460  0.74310  0.72300  1.0000
  C   C27       1.0  0.34460  0.75690  0.22300  1.0000
  C   C28       1.0  0.15540  0.25690  0.27700  1.0000
  H   H5        1.0  0.73190  0.25680  0.75270  1.0000
  H   H6        1.0  0.76810  0.75680  0.74730  1.0000
  H   H7        1.0  0.26810  0.74320  0.24730  1.0000
  H   H8        1.0  0.23190  0.24320  0.25270  1.0000
  C   C29       1.0  0.66100  0.16946  0.84710  1.0000
  C   C30       1.0  0.83900  0.66946  0.65290  1.0000
  C   C31       1.0  0.33900  0.83054  0.15290  1.0000
  C   C32       1.0  0.16100  0.33054  0.34710  1.0000
  C   C33       1.0  0.54420  0.14799  0.88010  1.0000
  C   C34       1.0  0.95580  0.64799  0.61990  1.0000
  C   C35       1.0  0.45580  0.85201  0.11990  1.0000
  C   C36       1.0  0.04420  0.35201  0.38010  1.0000
  H   H9        1.0  0.54670  0.09830  0.92660  1.0000
  H   H10       1.0  0.95330  0.59830  0.57340  1.0000
  H   H11       1.0  0.45330  0.90170  0.07340  1.0000
  H   H12       1.0  0.04670  0.40170  0.42660  1.0000
