data_image0
_chemical_formula_structural       Bi3O6C3H3C18H6O6N3C12O12C6H6C6H6
_chemical_formula_sum              "Bi3 O24 C45 H21 N3"
_cell_length_a       15.4088
_cell_length_b       15.4088
_cell_length_c       11.57
_cell_angle_alpha    90
_cell_angle_beta     90
_cell_angle_gamma    120

_space_group_name_H-M_alt    "P 1"
_space_group_IT_number       1

loop_
  _space_group_symop_operation_xyz
  'x, y, z'

loop_
  _atom_site_type_symbol
  _atom_site_label
  _atom_site_symmetry_multiplicity
  _atom_site_fract_x
  _atom_site_fract_y
  _atom_site_fract_z
  _atom_site_occupancy
  Bi  Bi1       1.0  0.35895  0.00000  0.00000  1.0000
  Bi  Bi2       1.0  0.64105  0.64105  0.00000  1.0000
  Bi  Bi3       1.0  0.00000  0.35895  0.00000  1.0000
  O   O1        1.0  0.29450  0.11000  0.00000  1.0000
  O   O2        1.0  0.81550  0.70550  0.00000  1.0000
  O   O3        1.0  0.89000  0.18450  0.00000  1.0000
  O   O4        1.0  0.11000  0.29450  0.00000  1.0000
  O   O5        1.0  0.18450  0.89000  0.00000  1.0000
  O   O6        1.0  0.70550  0.81550  0.00000  1.0000
  C   C1        1.0  0.28400  0.28400  0.00000  1.0000
  C   C2        1.0  0.00000  0.71600  0.00000  1.0000
  C   C3        1.0  0.71600  0.00000  0.00000  1.0000
  H   H1        1.0  0.22360  0.22360  0.00000  1.0000
  H   H2        1.0  0.00000  0.77640  0.00000  1.0000
  H   H3        1.0  0.77640  0.00000  0.00000  1.0000
  C   C4        1.0  0.38600  0.19800  0.00000  1.0000
  C   C5        1.0  0.81200  0.61400  0.00000  1.0000
  C   C6        1.0  0.80200  0.18800  0.00000  1.0000
  C   C7        1.0  0.19800  0.38600  0.00000  1.0000
  C   C8        1.0  0.18800  0.80200  0.00000  1.0000
  C   C9        1.0  0.61400  0.81200  0.00000  1.0000
  C   C10       1.0  0.37400  0.28700  0.00000  1.0000
  C   C11       1.0  0.91300  0.62600  0.00000  1.0000
  C   C12       1.0  0.71300  0.08700  0.00000  1.0000
  C   C13       1.0  0.28700  0.37400  0.00000  1.0000
  C   C14       1.0  0.08700  0.71300  0.00000  1.0000
  C   C15       1.0  0.62600  0.91300  0.00000  1.0000
  C   C16       1.0  0.46600  0.37700  0.00000  1.0000
  C   C17       1.0  0.91100  0.53400  0.00000  1.0000
  C   C18       1.0  0.62300  0.08900  0.00000  1.0000
  C   C19       1.0  0.37700  0.46600  0.00000  1.0000
  C   C20       1.0  0.08900  0.62300  0.00000  1.0000
  C   C21       1.0  0.53400  0.91100  0.00000  1.0000
  H   H4        1.0  0.52490  0.37460  0.00000  1.0000
  H   H5        1.0  0.84970  0.47510  0.00000  1.0000
  H   H6        1.0  0.62540  0.15030  0.00000  1.0000
  H   H7        1.0  0.37460  0.52490  0.00000  1.0000
  H   H8        1.0  0.15030  0.62540  0.00000  1.0000
  H   H9        1.0  0.47510  0.84970  0.00000  1.0000
  O   O7        1.0  0.46100  0.19100  0.00000  1.0000
  O   O8        1.0  0.73000  0.53900  0.00000  1.0000
  O   O9        1.0  0.80900  0.27000  0.00000  1.0000
  O   O10       1.0  0.19100  0.46100  0.00000  1.0000
  O   O11       1.0  0.27000  0.80900  0.00000  1.0000
  O   O12       1.0  0.53900  0.73000  0.00000  1.0000
  N   N1        1.0  0.47000  0.47000  0.00000  1.0000
  N   N2        1.0  0.00000  0.53000  0.00000  1.0000
  N   N3        1.0  0.53000  0.00000  0.00000  1.0000
  C   C22       1.0  0.37990  0.00000  0.61970  1.0000
  C   C23       1.0  0.62010  0.62010  0.38030  1.0000
  C   C24       1.0  0.00000  0.37990  0.61970  1.0000
  C   C25       1.0  0.37990  0.00000  0.38030  1.0000
  C   C26       1.0  0.62010  0.62010  0.61970  1.0000
  C   C27       1.0  0.00000  0.37990  0.38030  1.0000
  C   C28       1.0  0.37890  0.00000  0.75310  1.0000
  C   C29       1.0  0.62110  0.62110  0.24690  1.0000
  C   C30       1.0  0.00000  0.37890  0.75310  1.0000
  C   C31       1.0  0.37890  0.00000  0.24690  1.0000
  C   C32       1.0  0.62110  0.62110  0.75310  1.0000
  C   C33       1.0  0.00000  0.37890  0.24690  1.0000
  O   O13       1.0  0.30490  0.00000  0.79990  1.0000
  O   O14       1.0  0.69510  0.69510  0.20010  1.0000
  O   O15       1.0  0.00000  0.30490  0.79990  1.0000
  O   O16       1.0  0.30490  0.00000  0.20010  1.0000
  O   O17       1.0  0.69510  0.69510  0.79990  1.0000
  O   O18       1.0  0.00000  0.30490  0.20010  1.0000
  O   O19       1.0  0.45320  0.00000  0.79920  1.0000
  O   O20       1.0  0.54680  0.54680  0.20080  1.0000
  O   O21       1.0  0.00000  0.45320  0.79920  1.0000
  O   O22       1.0  0.45320  0.00000  0.20080  1.0000
  O   O23       1.0  0.54680  0.54680  0.79920  1.0000
  O   O24       1.0  0.00000  0.45320  0.20080  1.0000
  C   C34       1.0  0.30000  0.00000  0.56140  1.0000
  C   C35       1.0  0.70000  0.70000  0.43860  1.0000
  C   C36       1.0  0.00000  0.30000  0.56140  1.0000
  C   C37       1.0  0.30000  0.00000  0.43860  1.0000
  C   C38       1.0  0.70000  0.70000  0.56140  1.0000
  C   C39       1.0  0.00000  0.30000  0.43860  1.0000
  H   H10       1.0  0.24800  0.00000  0.60240  1.0000
  H   H11       1.0  0.75200  0.75200  0.39760  1.0000
  H   H12       1.0  0.00000  0.24800  0.60240  1.0000
  H   H13       1.0  0.24800  0.00000  0.39760  1.0000
  H   H14       1.0  0.75200  0.75200  0.60240  1.0000
  H   H15       1.0  0.00000  0.24800  0.39760  1.0000
  C   C40       1.0  0.45740  0.00000  0.56030  1.0000
  C   C41       1.0  0.54260  0.54260  0.43970  1.0000
  C   C42       1.0  0.00000  0.45740  0.56030  1.0000
  C   C43       1.0  0.45740  0.00000  0.43970  1.0000
  C   C44       1.0  0.54260  0.54260  0.56030  1.0000
  C   C45       1.0  0.00000  0.45740  0.43970  1.0000
  H   H16       1.0  0.50970  0.00000  0.60050  1.0000
  H   H17       1.0  0.49030  0.49030  0.39950  1.0000
  H   H18       1.0  0.00000  0.50970  0.60050  1.0000
  H   H19       1.0  0.50970  0.00000  0.39950  1.0000
  H   H20       1.0  0.49030  0.49030  0.60050  1.0000
  H   H21       1.0  0.00000  0.50970  0.39950  1.0000
