data_image0
_chemical_formula_structural       Mn4Cl4O8C12Cl4O8C12Cl4O8C12O4H8
_chemical_formula_sum              "Mn4 Cl12 O28 C36 H8"
_cell_length_a       9.9052
_cell_length_b       8.351
_cell_length_c       25.7006
_cell_angle_alpha    90
_cell_angle_beta     100.503
_cell_angle_gamma    90

_space_group_name_H-M_alt    "P 1"
_space_group_IT_number       1

loop_
  _space_group_symop_operation_xyz
  'x, y, z'

loop_
  _atom_site_type_symbol
  _atom_site_label
  _atom_site_symmetry_multiplicity
  _atom_site_fract_x
  _atom_site_fract_y
  _atom_site_fract_z
  _atom_site_occupancy
  Mn  Mn1       1.0  0.64844  0.08207  0.65751  1.0000
  Mn  Mn2       1.0  0.85156  0.08207  0.84249  1.0000
  Mn  Mn3       1.0  0.35156  0.91793  0.34249  1.0000
  Mn  Mn4       1.0  0.14844  0.91793  0.15751  1.0000
  Cl  Cl1       1.0  0.07727  0.40518  0.74691  1.0000
  Cl  Cl2       1.0  0.42273  0.40518  0.75309  1.0000
  Cl  Cl3       1.0  0.92273  0.59482  0.25309  1.0000
  Cl  Cl4       1.0  0.57727  0.59482  0.24691  1.0000
  O   O1        1.0  0.59450  0.34120  0.64510  1.0000
  O   O2        1.0  0.90550  0.34120  0.85490  1.0000
  O   O3        1.0  0.40550  0.65880  0.35490  1.0000
  O   O4        1.0  0.09450  0.65880  0.14510  1.0000
  O   O5        1.0  0.82860  0.22150  0.69223  1.0000
  O   O6        1.0  0.67140  0.22150  0.80777  1.0000
  O   O7        1.0  0.17140  0.77850  0.30777  1.0000
  O   O8        1.0  0.32860  0.77850  0.19223  1.0000
  C   C1        1.0  0.68370  0.44160  0.66365  1.0000
  C   C2        1.0  0.81630  0.44160  0.83635  1.0000
  C   C3        1.0  0.31630  0.55840  0.33635  1.0000
  C   C4        1.0  0.18370  0.55840  0.16365  1.0000
  C   C5        1.0  0.81970  0.37360  0.69189  1.0000
  C   C6        1.0  0.68030  0.37360  0.80811  1.0000
  C   C7        1.0  0.18030  0.62640  0.30811  1.0000
  C   C8        1.0  0.31970  0.62640  0.19189  1.0000
  C   C9        1.0  0.92120  0.47800  0.71499  1.0000
  C   C10       1.0  0.57880  0.47800  0.78501  1.0000
  C   C11       1.0  0.07880  0.52200  0.28501  1.0000
  C   C12       1.0  0.42120  0.52200  0.21499  1.0000
  Cl  Cl5       1.0  0.51526  0.68172  0.62298  1.0000
  Cl  Cl6       1.0  0.98474  0.68172  0.87702  1.0000
  Cl  Cl7       1.0  0.48474  0.31828  0.37702  1.0000
  Cl  Cl8       1.0  0.01526  0.31828  0.12298  1.0000
  O   O9        1.0  0.98340  0.74200  0.73959  1.0000
  O   O10       1.0  0.51660  0.74200  0.76041  1.0000
  O   O11       1.0  0.01660  0.25800  0.26041  1.0000
  O   O12       1.0  0.48340  0.25800  0.23959  1.0000
  O   O13       1.0  0.75800  0.86550  0.68227  1.0000
  O   O14       1.0  0.74200  0.86550  0.81773  1.0000
  O   O15       1.0  0.24200  0.13450  0.31773  1.0000
  O   O16       1.0  0.25800  0.13450  0.18227  1.0000
  C   C13       1.0  0.89950  0.64720  0.71556  1.0000
  C   C14       1.0  0.60050  0.64720  0.78444  1.0000
  C   C15       1.0  0.10050  0.35280  0.28444  1.0000
  C   C16       1.0  0.39950  0.35280  0.21556  1.0000
  C   C17       1.0  0.76530  0.71560  0.68365  1.0000
  C   C18       1.0  0.73470  0.71560  0.81635  1.0000
  C   C19       1.0  0.23470  0.28440  0.31635  1.0000
  C   C20       1.0  0.26530  0.28440  0.18365  1.0000
  C   C21       1.0  0.66610  0.60830  0.65965  1.0000
  C   C22       1.0  0.83390  0.60830  0.84035  1.0000
  C   C23       1.0  0.33390  0.39170  0.34035  1.0000
  C   C24       1.0  0.16610  0.39170  0.15965  1.0000
  Cl  Cl9       1.0  0.19683  0.00698  0.52485  1.0000
  Cl  Cl10      1.0  0.30317  0.00698  0.97515  1.0000
  Cl  Cl11      1.0  0.80317  0.99302  0.47515  1.0000
  Cl  Cl12      1.0  0.69683  0.99302  0.02485  1.0000
  O   O17       1.0  0.71430  0.04630  0.58039  1.0000
  O   O18       1.0  0.78570  0.04630  0.91961  1.0000
  O   O19       1.0  0.28570  0.95370  0.41961  1.0000
  O   O20       1.0  0.21430  0.95370  0.08039  1.0000
  O   O21       1.0  0.46050  0.05360  0.59900  1.0000
  O   O22       1.0  0.03950  0.05360  0.90100  1.0000
  O   O23       1.0  0.53950  0.94640  0.40100  1.0000
  O   O24       1.0  0.96050  0.94640  0.09900  1.0000
  C   C25       1.0  0.61970  0.02370  0.54099  1.0000
  C   C26       1.0  0.88030  0.02370  0.95901  1.0000
  C   C27       1.0  0.38030  0.97630  0.45901  1.0000
  C   C28       1.0  0.11970  0.97630  0.04099  1.0000
  C   C29       1.0  0.47260  0.02780  0.55208  1.0000
  C   C30       1.0  0.02740  0.02780  0.94792  1.0000
  C   C31       1.0  0.52740  0.97220  0.44792  1.0000
  C   C32       1.0  0.97260  0.97220  0.05208  1.0000
  C   C33       1.0  0.36130  0.00360  0.51064  1.0000
  C   C34       1.0  0.13870  0.00360  0.98936  1.0000
  C   C35       1.0  0.63870  0.99640  0.48936  1.0000
  C   C36       1.0  0.86130  0.99640  0.01064  1.0000
  O   O25       1.0  0.54190  0.04660  0.72251  1.0000
  O   O26       1.0  0.95810  0.04660  0.77749  1.0000
  O   O27       1.0  0.45810  0.95340  0.27749  1.0000
  O   O28       1.0  0.04190  0.95340  0.22251  1.0000
  H   H1        1.0  0.55700  0.94300  0.73640  1.0000
  H   H2        1.0  0.94300  0.94300  0.76360  1.0000
  H   H3        1.0  0.44300  0.05700  0.26360  1.0000
  H   H4        1.0  0.05700  0.05700  0.23640  1.0000
  H   H5        1.0  0.57900  0.11100  0.75120  1.0000
  H   H6        1.0  0.92100  0.11100  0.74880  1.0000
  H   H7        1.0  0.42100  0.88900  0.24880  1.0000
  H   H8        1.0  0.07900  0.88900  0.25120  1.0000
