data_image0
_chemical_formula_structural       U8O64C24H8C24H8C8H8C16H8C16H8C8H8
_chemical_formula_sum              "U8 O64 C96 H48"
_cell_length_a       14.7897
_cell_length_b       19.8448
_cell_length_c       15.1573
_cell_angle_alpha    90
_cell_angle_beta     91.94
_cell_angle_gamma    90

_space_group_name_H-M_alt    "P 1"
_space_group_IT_number       1

loop_
  _space_group_symop_operation_xyz
  'x, y, z'

loop_
  _atom_site_type_symbol
  _atom_site_label
  _atom_site_symmetry_multiplicity
  _atom_site_fract_x
  _atom_site_fract_y
  _atom_site_fract_z
  _atom_site_occupancy
  U   U1        1.0  0.66623  0.60057  0.41492  1.0000
  U   U2        1.0  0.33377  0.60057  0.08508  1.0000
  U   U3        1.0  0.16623  0.10057  0.41492  1.0000
  U   U4        1.0  0.83377  0.10057  0.08508  1.0000
  U   U5        1.0  0.33377  0.39943  0.58508  1.0000
  U   U6        1.0  0.66623  0.39943  0.91492  1.0000
  U   U7        1.0  0.83377  0.89943  0.58508  1.0000
  U   U8        1.0  0.16623  0.89943  0.91492  1.0000
  O   O1        1.0  0.55850  0.59990  0.36220  1.0000
  O   O2        1.0  0.44150  0.59990  0.13780  1.0000
  O   O3        1.0  0.05850  0.09990  0.36220  1.0000
  O   O4        1.0  0.94150  0.09990  0.13780  1.0000
  O   O5        1.0  0.44150  0.40010  0.63780  1.0000
  O   O6        1.0  0.55850  0.40010  0.86220  1.0000
  O   O7        1.0  0.94150  0.90010  0.63780  1.0000
  O   O8        1.0  0.05850  0.90010  0.86220  1.0000
  O   O9        1.0  0.77300  0.60240  0.46600  1.0000
  O   O10       1.0  0.22700  0.60240  0.03400  1.0000
  O   O11       1.0  0.27300  0.10240  0.46600  1.0000
  O   O12       1.0  0.72700  0.10240  0.03400  1.0000
  O   O13       1.0  0.22700  0.39760  0.53400  1.0000
  O   O14       1.0  0.77300  0.39760  0.96600  1.0000
  O   O15       1.0  0.72700  0.89760  0.53400  1.0000
  O   O16       1.0  0.27300  0.89760  0.96600  1.0000
  O   O17       1.0  0.67720  0.47620  0.41330  1.0000
  O   O18       1.0  0.32280  0.47620  0.08670  1.0000
  O   O19       1.0  0.17720  0.97620  0.41330  1.0000
  O   O20       1.0  0.82280  0.97620  0.08670  1.0000
  O   O21       1.0  0.32280  0.52380  0.58670  1.0000
  O   O22       1.0  0.67720  0.52380  0.91330  1.0000
  O   O23       1.0  0.82280  0.02380  0.58670  1.0000
  O   O24       1.0  0.17720  0.02380  0.91330  1.0000
  O   O25       1.0  0.59270  0.65800  0.53870  1.0000
  O   O26       1.0  0.40730  0.65800  0.96130  1.0000
  O   O27       1.0  0.09270  0.15800  0.53870  1.0000
  O   O28       1.0  0.90730  0.15800  0.96130  1.0000
  O   O29       1.0  0.40730  0.34200  0.46130  1.0000
  O   O30       1.0  0.59270  0.34200  0.03870  1.0000
  O   O31       1.0  0.90730  0.84200  0.46130  1.0000
  O   O32       1.0  0.09270  0.84200  0.03870  1.0000
  O   O33       1.0  0.82840  0.22280  0.09830  1.0000
  O   O34       1.0  0.17160  0.22280  0.40170  1.0000
  O   O35       1.0  0.32840  0.72280  0.09830  1.0000
  O   O36       1.0  0.67160  0.72280  0.40170  1.0000
  O   O37       1.0  0.17160  0.77720  0.90170  1.0000
  O   O38       1.0  0.82840  0.77720  0.59830  1.0000
  O   O39       1.0  0.67160  0.27720  0.90170  1.0000
  O   O40       1.0  0.32840  0.27720  0.59830  1.0000
  O   O41       1.0  0.77470  0.16670  0.20960  1.0000
  O   O42       1.0  0.22530  0.16670  0.29040  1.0000
  O   O43       1.0  0.27470  0.66670  0.20960  1.0000
  O   O44       1.0  0.72530  0.66670  0.29040  1.0000
  O   O45       1.0  0.22530  0.83330  0.79040  1.0000
  O   O46       1.0  0.77470  0.83330  0.70960  1.0000
  O   O47       1.0  0.72530  0.33330  0.79040  1.0000
  O   O48       1.0  0.27470  0.33330  0.70960  1.0000
  O   O49       1.0  0.72340  0.52940  0.29720  1.0000
  O   O50       1.0  0.27660  0.52940  0.20280  1.0000
  O   O51       1.0  0.22340  0.02940  0.29720  1.0000
  O   O52       1.0  0.77660  0.02940  0.20280  1.0000
  O   O53       1.0  0.27660  0.47060  0.70280  1.0000
  O   O54       1.0  0.72340  0.47060  0.79720  1.0000
  O   O55       1.0  0.77660  0.97060  0.70280  1.0000
  O   O56       1.0  0.22340  0.97060  0.79720  1.0000
  O   O57       1.0  0.60840  0.54850  0.54790  1.0000
  O   O58       1.0  0.39160  0.54850  0.95210  1.0000
  O   O59       1.0  0.10840  0.04850  0.54790  1.0000
  O   O60       1.0  0.89160  0.04850  0.95210  1.0000
  O   O61       1.0  0.39160  0.45150  0.45210  1.0000
  O   O62       1.0  0.60840  0.45150  0.04790  1.0000
  O   O63       1.0  0.89160  0.95150  0.45210  1.0000
  O   O64       1.0  0.10840  0.95150  0.04790  1.0000
  C   C1        1.0  0.53900  0.60450  0.66810  1.0000
  C   C2        1.0  0.46100  0.60450  0.83190  1.0000
  C   C3        1.0  0.03900  0.10450  0.66810  1.0000
  C   C4        1.0  0.96100  0.10450  0.83190  1.0000
  C   C5        1.0  0.46100  0.39550  0.33190  1.0000
  C   C6        1.0  0.53900  0.39550  0.16810  1.0000
  C   C7        1.0  0.96100  0.89550  0.33190  1.0000
  C   C8        1.0  0.03900  0.89550  0.16810  1.0000
  C   C9        1.0  0.58160  0.60360  0.58040  1.0000
  C   C10       1.0  0.41840  0.60360  0.91960  1.0000
  C   C11       1.0  0.08160  0.10360  0.58040  1.0000
  C   C12       1.0  0.91840  0.10360  0.91960  1.0000
  C   C13       1.0  0.41840  0.39640  0.41960  1.0000
  C   C14       1.0  0.58160  0.39640  0.08040  1.0000
  C   C15       1.0  0.91840  0.89640  0.41960  1.0000
  C   C16       1.0  0.08160  0.89640  0.08040  1.0000
  C   C17       1.0  0.51890  0.66600  0.70960  1.0000
  C   C18       1.0  0.48110  0.66600  0.79040  1.0000
  C   C19       1.0  0.01890  0.16600  0.70960  1.0000
  C   C20       1.0  0.98110  0.16600  0.79040  1.0000
  C   C21       1.0  0.48110  0.33400  0.29040  1.0000
  C   C22       1.0  0.51890  0.33400  0.20960  1.0000
  C   C23       1.0  0.98110  0.83400  0.29040  1.0000
  C   C24       1.0  0.01890  0.83400  0.20960  1.0000
  H   H1        1.0  0.53180  0.70750  0.68140  1.0000
  H   H2        1.0  0.46820  0.70750  0.81860  1.0000
  H   H3        1.0  0.03180  0.20750  0.68140  1.0000
  H   H4        1.0  0.96820  0.20750  0.81860  1.0000
  H   H5        1.0  0.46820  0.29250  0.31860  1.0000
  H   H6        1.0  0.53180  0.29250  0.18140  1.0000
  H   H7        1.0  0.96820  0.79250  0.31860  1.0000
  H   H8        1.0  0.03180  0.79250  0.18140  1.0000
  C   C25       1.0  0.79130  0.22280  0.17250  1.0000
  C   C26       1.0  0.20870  0.22280  0.32750  1.0000
  C   C27       1.0  0.29130  0.72280  0.17250  1.0000
  C   C28       1.0  0.70870  0.72280  0.32750  1.0000
  C   C29       1.0  0.20870  0.77720  0.82750  1.0000
  C   C30       1.0  0.79130  0.77720  0.67250  1.0000
  C   C31       1.0  0.70870  0.27720  0.82750  1.0000
  C   C32       1.0  0.29130  0.27720  0.67250  1.0000
  C   C33       1.0  0.70950  0.47510  0.33860  1.0000
  C   C34       1.0  0.29050  0.47510  0.16140  1.0000
  C   C35       1.0  0.20950  0.97510  0.33860  1.0000
  C   C36       1.0  0.79050  0.97510  0.16140  1.0000
  C   C37       1.0  0.29050  0.52490  0.66140  1.0000
  C   C38       1.0  0.70950  0.52490  0.83860  1.0000
  C   C39       1.0  0.79050  0.02490  0.66140  1.0000
  C   C40       1.0  0.20950  0.02490  0.83860  1.0000
  C   C41       1.0  0.73640  0.28940  0.29900  1.0000
  C   C42       1.0  0.26360  0.28940  0.20100  1.0000
  C   C43       1.0  0.23640  0.78940  0.29900  1.0000
  C   C44       1.0  0.76360  0.78940  0.20100  1.0000
  C   C45       1.0  0.26360  0.71060  0.70100  1.0000
  C   C46       1.0  0.73640  0.71060  0.79900  1.0000
  C   C47       1.0  0.76360  0.21060  0.70100  1.0000
  C   C48       1.0  0.23640  0.21060  0.79900  1.0000
  H   H9        1.0  0.72560  0.24840  0.32920  1.0000
  H   H10       1.0  0.27440  0.24840  0.17080  1.0000
  H   H11       1.0  0.22560  0.74840  0.32920  1.0000
  H   H12       1.0  0.77440  0.74840  0.17080  1.0000
  H   H13       1.0  0.27440  0.75160  0.67080  1.0000
  H   H14       1.0  0.72560  0.75160  0.82920  1.0000
  H   H15       1.0  0.77440  0.25160  0.67080  1.0000
  H   H16       1.0  0.22560  0.25160  0.82920  1.0000
  C   C49       1.0  0.78520  0.34700  0.17070  1.0000
  C   C50       1.0  0.21480  0.34700  0.32930  1.0000
  C   C51       1.0  0.28520  0.84700  0.17070  1.0000
  C   C52       1.0  0.71480  0.84700  0.32930  1.0000
  C   C53       1.0  0.21480  0.65300  0.82930  1.0000
  C   C54       1.0  0.78520  0.65300  0.67070  1.0000
  C   C55       1.0  0.71480  0.15300  0.82930  1.0000
  C   C56       1.0  0.28520  0.15300  0.67070  1.0000
  H   H17       1.0  0.80710  0.34590  0.11250  1.0000
  H   H18       1.0  0.19290  0.34590  0.38750  1.0000
  H   H19       1.0  0.30710  0.84590  0.11250  1.0000
  H   H20       1.0  0.69290  0.84590  0.38750  1.0000
  H   H21       1.0  0.19290  0.65410  0.88750  1.0000
  H   H22       1.0  0.80710  0.65410  0.61250  1.0000
  H   H23       1.0  0.69290  0.15410  0.88750  1.0000
  H   H24       1.0  0.30710  0.15410  0.61250  1.0000
  C   C57       1.0  0.73280  0.40940  0.29570  1.0000
  C   C58       1.0  0.26720  0.40940  0.20430  1.0000
  C   C59       1.0  0.23280  0.90940  0.29570  1.0000
  C   C60       1.0  0.76720  0.90940  0.20430  1.0000
  C   C61       1.0  0.26720  0.59060  0.70430  1.0000
  C   C62       1.0  0.73280  0.59060  0.79570  1.0000
  C   C63       1.0  0.76720  0.09060  0.70430  1.0000
  C   C64       1.0  0.23280  0.09060  0.79570  1.0000
  C   C65       1.0  0.52030  0.54400  0.70920  1.0000
  C   C66       1.0  0.47970  0.54400  0.79080  1.0000
  C   C67       1.0  0.02030  0.04400  0.70920  1.0000
  C   C68       1.0  0.97970  0.04400  0.79080  1.0000
  C   C69       1.0  0.47970  0.45600  0.29080  1.0000
  C   C70       1.0  0.52030  0.45600  0.20920  1.0000
  C   C71       1.0  0.97970  0.95600  0.29080  1.0000
  C   C72       1.0  0.02030  0.95600  0.20920  1.0000
  H   H25       1.0  0.53520  0.50260  0.68190  1.0000
  H   H26       1.0  0.46480  0.50260  0.81810  1.0000
  H   H27       1.0  0.03520  0.00260  0.68190  1.0000
  H   H28       1.0  0.96480  0.00260  0.81810  1.0000
  H   H29       1.0  0.46480  0.49740  0.31810  1.0000
  H   H30       1.0  0.53520  0.49740  0.18190  1.0000
  H   H31       1.0  0.96480  0.99740  0.31810  1.0000
  H   H32       1.0  0.03520  0.99740  0.18190  1.0000
  C   C73       1.0  0.77130  0.28770  0.21620  1.0000
  C   C74       1.0  0.22870  0.28770  0.28380  1.0000
  C   C75       1.0  0.27130  0.78770  0.21620  1.0000
  C   C76       1.0  0.72870  0.78770  0.28380  1.0000
  C   C77       1.0  0.22870  0.71230  0.78380  1.0000
  C   C78       1.0  0.77130  0.71230  0.71620  1.0000
  C   C79       1.0  0.72870  0.21230  0.78380  1.0000
  C   C80       1.0  0.27130  0.21230  0.71620  1.0000
  C   C81       1.0  0.76700  0.40850  0.21090  1.0000
  C   C82       1.0  0.23300  0.40850  0.28910  1.0000
  C   C83       1.0  0.26700  0.90850  0.21090  1.0000
  C   C84       1.0  0.73300  0.90850  0.28910  1.0000
  C   C85       1.0  0.23300  0.59150  0.78910  1.0000
  C   C86       1.0  0.76700  0.59150  0.71090  1.0000
  C   C87       1.0  0.73300  0.09150  0.78910  1.0000
  C   C88       1.0  0.26700  0.09150  0.71090  1.0000
  H   H33       1.0  0.77770  0.44950  0.18070  1.0000
  H   H34       1.0  0.22230  0.44950  0.31930  1.0000
  H   H35       1.0  0.27770  0.94950  0.18070  1.0000
  H   H36       1.0  0.72230  0.94950  0.31930  1.0000
  H   H37       1.0  0.22230  0.55050  0.81930  1.0000
  H   H38       1.0  0.77770  0.55050  0.68070  1.0000
  H   H39       1.0  0.72230  0.05050  0.81930  1.0000
  H   H40       1.0  0.27770  0.05050  0.68070  1.0000
  C   C89       1.0  0.71700  0.34910  0.33830  1.0000
  C   C90       1.0  0.28300  0.34910  0.16170  1.0000
  C   C91       1.0  0.21700  0.84910  0.33830  1.0000
  C   C92       1.0  0.78300  0.84910  0.16170  1.0000
  C   C93       1.0  0.28300  0.65090  0.66170  1.0000
  C   C94       1.0  0.71700  0.65090  0.83830  1.0000
  C   C95       1.0  0.78300  0.15090  0.66170  1.0000
  C   C96       1.0  0.21700  0.15090  0.83830  1.0000
  H   H41       1.0  0.69240  0.34940  0.39540  1.0000
  H   H42       1.0  0.30760  0.34940  0.10460  1.0000
  H   H43       1.0  0.19240  0.84940  0.39540  1.0000
  H   H44       1.0  0.80760  0.84940  0.10460  1.0000
  H   H45       1.0  0.30760  0.65060  0.60460  1.0000
  H   H46       1.0  0.69240  0.65060  0.89540  1.0000
  H   H47       1.0  0.80760  0.15060  0.60460  1.0000
  H   H48       1.0  0.19240  0.15060  0.89540  1.0000
