data_image0
_chemical_formula_structural       Mn6Br4C8H4C4H4C8H4C4H4C8O16C8H4C4H4C4O8
_chemical_formula_sum              "Mn6 Br4 C48 H24 O24"
_cell_length_a       13.5252
_cell_length_b       9.646
_cell_length_c       18.4119
_cell_angle_alpha    90
_cell_angle_beta     110.747
_cell_angle_gamma    90

_space_group_name_H-M_alt    "P 1"
_space_group_IT_number       1

loop_
  _space_group_symop_operation_xyz
  'x, y, z'

loop_
  _atom_site_type_symbol
  _atom_site_label
  _atom_site_symmetry_multiplicity
  _atom_site_fract_x
  _atom_site_fract_y
  _atom_site_fract_z
  _atom_site_occupancy
  Mn  Mn1       1.0  0.00000  0.50000  0.50000  1.0000
  Mn  Mn2       1.0  0.50000  0.00000  0.00000  1.0000
  Mn  Mn3       1.0  0.19706  0.44631  0.42567  1.0000
  Mn  Mn4       1.0  0.30294  0.94631  0.07433  1.0000
  Mn  Mn5       1.0  0.80294  0.55369  0.57433  1.0000
  Mn  Mn6       1.0  0.69706  0.05369  0.92567  1.0000
  Br  Br1       1.0  0.35840  0.35388  0.40692  1.0000
  Br  Br2       1.0  0.14160  0.85388  0.09308  1.0000
  Br  Br3       1.0  0.64160  0.64612  0.59308  1.0000
  Br  Br4       1.0  0.85840  0.14612  0.90692  1.0000
  C   C1        1.0  0.70050  0.28850  0.36900  1.0000
  C   C2        1.0  0.79950  0.78850  0.13100  1.0000
  C   C3        1.0  0.29950  0.71150  0.63100  1.0000
  C   C4        1.0  0.20050  0.21150  0.86900  1.0000
  C   C5        1.0  0.73350  0.23530  0.31210  1.0000
  C   C6        1.0  0.76650  0.73530  0.18790  1.0000
  C   C7        1.0  0.26650  0.76470  0.68790  1.0000
  C   C8        1.0  0.23350  0.26470  0.81210  1.0000
  H   H1        1.0  0.80430  0.24190  0.31710  1.0000
  H   H2        1.0  0.69570  0.74190  0.18290  1.0000
  H   H3        1.0  0.19570  0.75810  0.68290  1.0000
  H   H4        1.0  0.30430  0.25810  0.81710  1.0000
  C   C9        1.0  0.66230  0.17240  0.24770  1.0000
  C   C10       1.0  0.83770  0.67240  0.25230  1.0000
  C   C11       1.0  0.33770  0.82760  0.75230  1.0000
  C   C12       1.0  0.16230  0.32760  0.74770  1.0000
  H   H5        1.0  0.68530  0.13760  0.20930  1.0000
  H   H6        1.0  0.81470  0.63760  0.29070  1.0000
  H   H7        1.0  0.31470  0.86240  0.79070  1.0000
  H   H8        1.0  0.18530  0.36240  0.70930  1.0000
  C   C13       1.0  0.55720  0.16040  0.23940  1.0000
  C   C14       1.0  0.94280  0.66040  0.26060  1.0000
  C   C15       1.0  0.44280  0.83960  0.76060  1.0000
  C   C16       1.0  0.05720  0.33960  0.73940  1.0000
  C   C17       1.0  0.52450  0.21180  0.29680  1.0000
  C   C18       1.0  0.97550  0.71180  0.20320  1.0000
  C   C19       1.0  0.47550  0.78820  0.70320  1.0000
  C   C20       1.0  0.02450  0.28820  0.79680  1.0000
  H   H9        1.0  0.45410  0.20240  0.29230  1.0000
  H   H10       1.0  0.04590  0.70240  0.20770  1.0000
  H   H11       1.0  0.54590  0.79760  0.70770  1.0000
  H   H12       1.0  0.95410  0.29760  0.79230  1.0000
  C   C21       1.0  0.59540  0.27730  0.36120  1.0000
  C   C22       1.0  0.90460  0.77730  0.13880  1.0000
  C   C23       1.0  0.40460  0.72270  0.63880  1.0000
  C   C24       1.0  0.09540  0.22270  0.86120  1.0000
  H   H13       1.0  0.57230  0.31370  0.39920  1.0000
  H   H14       1.0  0.92770  0.81370  0.10080  1.0000
  H   H15       1.0  0.42770  0.68630  0.60080  1.0000
  H   H16       1.0  0.07230  0.18630  0.89920  1.0000
  C   C25       1.0  0.77680  0.36200  0.43840  1.0000
  C   C26       1.0  0.72320  0.86200  0.06160  1.0000
  C   C27       1.0  0.22320  0.63800  0.56160  1.0000
  C   C28       1.0  0.27680  0.13800  0.93840  1.0000
  C   C29       1.0  0.48090  0.09100  0.16950  1.0000
  C   C30       1.0  0.01910  0.59100  0.33050  1.0000
  C   C31       1.0  0.51910  0.90900  0.83050  1.0000
  C   C32       1.0  0.98090  0.40900  0.66950  1.0000
  O   O1        1.0  0.87070  0.37110  0.44215  1.0000
  O   O2        1.0  0.62930  0.87110  0.05785  1.0000
  O   O3        1.0  0.12930  0.62890  0.55785  1.0000
  O   O4        1.0  0.37070  0.12890  0.94215  1.0000
  O   O5        1.0  0.74050  0.40950  0.48714  1.0000
  O   O6        1.0  0.75950  0.90950  0.01286  1.0000
  O   O7        1.0  0.25950  0.59050  0.51286  1.0000
  O   O8        1.0  0.24050  0.09050  0.98714  1.0000
  O   O9        1.0  0.50870  0.06740  0.11386  1.0000
  O   O10       1.0  0.99130  0.56740  0.38614  1.0000
  O   O11       1.0  0.49130  0.93260  0.88614  1.0000
  O   O12       1.0  0.00870  0.43260  0.61386  1.0000
  O   O13       1.0  0.39090  0.05860  0.17167  1.0000
  O   O14       1.0  0.10910  0.55860  0.32833  1.0000
  O   O15       1.0  0.60910  0.94140  0.82833  1.0000
  O   O16       1.0  0.89090  0.44140  0.67167  1.0000
  C   C33       1.0  0.04110  0.11320  0.47380  1.0000
  C   C34       1.0  0.45890  0.61320  0.02620  1.0000
  C   C35       1.0  0.95890  0.88680  0.52620  1.0000
  C   C36       1.0  0.54110  0.38680  0.97380  1.0000
  C   C37       1.0  0.04210  0.10950  0.54930  1.0000
  C   C38       1.0  0.45790  0.60950  0.95070  1.0000
  C   C39       1.0  0.95790  0.89050  0.45070  1.0000
  C   C40       1.0  0.54210  0.39050  0.04930  1.0000
  H   H17       1.0  0.07010  0.18360  0.58250  1.0000
  H   H18       1.0  0.42990  0.68360  0.91750  1.0000
  H   H19       1.0  0.92990  0.81640  0.41750  1.0000
  H   H20       1.0  0.57010  0.31640  0.08250  1.0000
  C   C41       1.0  0.99800  0.00300  0.42460  1.0000
  C   C42       1.0  0.50200  0.50300  0.07540  1.0000
  C   C43       1.0  0.00200  0.99700  0.57540  1.0000
  C   C44       1.0  0.49800  0.49700  0.92460  1.0000
  H   H21       1.0  0.99630  0.00510  0.37360  1.0000
  H   H22       1.0  0.50370  0.50510  0.12640  1.0000
  H   H23       1.0  0.00370  0.99490  0.62640  1.0000
  H   H24       1.0  0.49630  0.49490  0.87360  1.0000
  C   C45       1.0  0.08680  0.23420  0.44660  1.0000
  C   C46       1.0  0.41320  0.73420  0.05340  1.0000
  C   C47       1.0  0.91320  0.76580  0.55340  1.0000
  C   C48       1.0  0.58680  0.26580  0.94660  1.0000
  O   O17       1.0  0.10200  0.23220  0.38440  1.0000
  O   O18       1.0  0.39800  0.73220  0.11560  1.0000
  O   O19       1.0  0.89800  0.76780  0.61560  1.0000
  O   O20       1.0  0.60200  0.26780  0.88440  1.0000
  O   O21       1.0  0.11400  0.34110  0.49184  1.0000
  O   O22       1.0  0.38600  0.84110  0.00816  1.0000
  O   O23       1.0  0.88600  0.65890  0.50816  1.0000
  O   O24       1.0  0.61400  0.15890  0.99184  1.0000
