data_image0
_chemical_formula_structural       Mn6Br4O16C8H4C4H4C8H4C4H4C8O8C8H4C4H4C4
_chemical_formula_sum              "Mn6 Br4 O24 C48 H24"
_cell_length_a       13.8296
_cell_length_b       10.4308
_cell_length_c       17.048
_cell_angle_alpha    90
_cell_angle_beta     109.76
_cell_angle_gamma    90

_space_group_name_H-M_alt    "P 1"
_space_group_IT_number       1

loop_
  _space_group_symop_operation_xyz
  'x, y, z'

loop_
  _atom_site_type_symbol
  _atom_site_label
  _atom_site_symmetry_multiplicity
  _atom_site_fract_x
  _atom_site_fract_y
  _atom_site_fract_z
  _atom_site_occupancy
  Mn  Mn1       1.0  0.00000  0.00000  0.00000  1.0000
  Mn  Mn2       1.0  0.00000  0.50000  0.50000  1.0000
  Mn  Mn3       1.0  0.26681  0.58263  0.56001  1.0000
  Mn  Mn4       1.0  0.73319  0.08263  0.93999  1.0000
  Mn  Mn5       1.0  0.73319  0.41737  0.43999  1.0000
  Mn  Mn6       1.0  0.26681  0.91737  0.06001  1.0000
  Br  Br1       1.0  0.44812  0.66211  0.58017  1.0000
  Br  Br2       1.0  0.55188  0.16211  0.91983  1.0000
  Br  Br3       1.0  0.55188  0.33789  0.41983  1.0000
  Br  Br4       1.0  0.44812  0.83789  0.08017  1.0000
  O   O1        1.0  0.13620  0.01190  0.11364  1.0000
  O   O2        1.0  0.86380  0.51190  0.38636  1.0000
  O   O3        1.0  0.86380  0.98810  0.88636  1.0000
  O   O4        1.0  0.13620  0.48810  0.61364  1.0000
  O   O5        1.0  0.30170  0.03810  0.16755  1.0000
  O   O6        1.0  0.69830  0.53810  0.33245  1.0000
  O   O7        1.0  0.69830  0.96190  0.83245  1.0000
  O   O8        1.0  0.30170  0.46190  0.66755  1.0000
  O   O9        1.0  0.07550  0.39160  0.43195  1.0000
  O   O10       1.0  0.92450  0.89160  0.06805  1.0000
  O   O11       1.0  0.92450  0.60840  0.56805  1.0000
  O   O12       1.0  0.07550  0.10840  0.93195  1.0000
  O   O13       1.0  0.24040  0.44600  0.46907  1.0000
  O   O14       1.0  0.75960  0.94600  0.03093  1.0000
  O   O15       1.0  0.75960  0.55400  0.53093  1.0000
  O   O16       1.0  0.24040  0.05400  0.96907  1.0000
  C   C1        1.0  0.19860  0.14730  0.23290  1.0000
  C   C2        1.0  0.80140  0.64730  0.26710  1.0000
  C   C3        1.0  0.80140  0.85270  0.76710  1.0000
  C   C4        1.0  0.19860  0.35270  0.73290  1.0000
  C   C5        1.0  0.10800  0.14500  0.24990  1.0000
  C   C6        1.0  0.89200  0.64500  0.25010  1.0000
  C   C7        1.0  0.89200  0.85500  0.75010  1.0000
  C   C8        1.0  0.10800  0.35500  0.74990  1.0000
  H   H1        1.0  0.05450  0.09180  0.21950  1.0000
  H   H2        1.0  0.94550  0.59180  0.28050  1.0000
  H   H3        1.0  0.94550  0.90820  0.78050  1.0000
  H   H4        1.0  0.05450  0.40820  0.71950  1.0000
  C   C9        1.0  0.09730  0.22200  0.31220  1.0000
  C   C10       1.0  0.90270  0.72200  0.18780  1.0000
  C   C11       1.0  0.90270  0.77800  0.68780  1.0000
  C   C12       1.0  0.09730  0.27800  0.81220  1.0000
  H   H5        1.0  0.03660  0.21870  0.32430  1.0000
  H   H6        1.0  0.96340  0.71870  0.17570  1.0000
  H   H7        1.0  0.96340  0.78130  0.67570  1.0000
  H   H8        1.0  0.03660  0.28130  0.82430  1.0000
  C   C13       1.0  0.17400  0.30310  0.35650  1.0000
  C   C14       1.0  0.82600  0.80310  0.14350  1.0000
  C   C15       1.0  0.82600  0.69690  0.64350  1.0000
  C   C16       1.0  0.17400  0.19690  0.85650  1.0000
  C   C17       1.0  0.26540  0.30540  0.33980  1.0000
  C   C18       1.0  0.73460  0.80540  0.16020  1.0000
  C   C19       1.0  0.73460  0.69460  0.66020  1.0000
  C   C20       1.0  0.26540  0.19460  0.83980  1.0000
  H   H9        1.0  0.31850  0.35950  0.36980  1.0000
  H   H10       1.0  0.68150  0.85950  0.13020  1.0000
  H   H11       1.0  0.68150  0.64050  0.63020  1.0000
  H   H12       1.0  0.31850  0.14050  0.86980  1.0000
  C   C21       1.0  0.27720  0.22650  0.27810  1.0000
  C   C22       1.0  0.72280  0.72650  0.22190  1.0000
  C   C23       1.0  0.72280  0.77350  0.72190  1.0000
  C   C24       1.0  0.27720  0.27350  0.77810  1.0000
  H   H13       1.0  0.33880  0.22720  0.26720  1.0000
  H   H14       1.0  0.66120  0.72720  0.23280  1.0000
  H   H15       1.0  0.66120  0.77280  0.73280  1.0000
  H   H16       1.0  0.33880  0.27280  0.76720  1.0000
  C   C25       1.0  0.21250  0.06240  0.16680  1.0000
  C   C26       1.0  0.78750  0.56240  0.33320  1.0000
  C   C27       1.0  0.78750  0.93760  0.83320  1.0000
  C   C28       1.0  0.21250  0.43760  0.66680  1.0000
  C   C29       1.0  0.16180  0.38770  0.42480  1.0000
  C   C30       1.0  0.83820  0.88770  0.07520  1.0000
  C   C31       1.0  0.83820  0.61230  0.57520  1.0000
  C   C32       1.0  0.16180  0.11230  0.92480  1.0000
  O   O17       1.0  0.07340  0.83020  0.97570  1.0000
  O   O18       1.0  0.92660  0.33020  0.52430  1.0000
  O   O19       1.0  0.92660  0.16980  0.02430  1.0000
  O   O20       1.0  0.07340  0.66980  0.47570  1.0000
  O   O21       1.0  0.20710  0.73400  0.06260  1.0000
  O   O22       1.0  0.79290  0.23400  0.43740  1.0000
  O   O23       1.0  0.79290  0.26600  0.93740  1.0000
  O   O24       1.0  0.20710  0.76600  0.56260  1.0000
  C   C33       1.0  0.05470  0.61280  0.00810  1.0000
  C   C34       1.0  0.94530  0.11280  0.49190  1.0000
  C   C35       1.0  0.94530  0.38720  0.99190  1.0000
  C   C36       1.0  0.05470  0.88720  0.50810  1.0000
  C   C37       1.0  0.95870  0.60470  0.95090  1.0000
  C   C38       1.0  0.04130  0.10470  0.54910  1.0000
  C   C39       1.0  0.04130  0.39530  0.04910  1.0000
  C   C40       1.0  0.95870  0.89530  0.45090  1.0000
  H   H17       1.0  0.93000  0.67500  0.91760  1.0000
  H   H18       1.0  0.07000  0.17500  0.58240  1.0000
  H   H19       1.0  0.07000  0.32500  0.08240  1.0000
  H   H20       1.0  0.93000  0.82500  0.41760  1.0000
  C   C41       1.0  0.09600  0.50820  0.05770  1.0000
  C   C42       1.0  0.90400  0.00820  0.44230  1.0000
  C   C43       1.0  0.90400  0.49180  0.94230  1.0000
  C   C44       1.0  0.09600  0.99180  0.55770  1.0000
  H   H21       1.0  0.16140  0.51380  0.09730  1.0000
  H   H22       1.0  0.83860  0.01380  0.40270  1.0000
  H   H23       1.0  0.83860  0.48620  0.90270  1.0000
  H   H24       1.0  0.16140  0.98620  0.59730  1.0000
  C   C45       1.0  0.11520  0.73470  0.01620  1.0000
  C   C46       1.0  0.88480  0.23470  0.48380  1.0000
  C   C47       1.0  0.88480  0.26530  0.98380  1.0000
  C   C48       1.0  0.11520  0.76530  0.51620  1.0000
