data_image0
_chemical_formula_structural       Mn6Cl4O16C8H4C4H4C8H4C4H4C8O8C8H4C4H4C4
_chemical_formula_sum              "Mn6 Cl4 O24 C48 H24"
_cell_length_a       13.5591
_cell_length_b       10.4987
_cell_length_c       16.6622
_cell_angle_alpha    90
_cell_angle_beta     110.43
_cell_angle_gamma    90

_space_group_name_H-M_alt    "P 1"
_space_group_IT_number       1

loop_
  _space_group_symop_operation_xyz
  'x, y, z'

loop_
  _atom_site_type_symbol
  _atom_site_label
  _atom_site_symmetry_multiplicity
  _atom_site_fract_x
  _atom_site_fract_y
  _atom_site_fract_z
  _atom_site_occupancy
  Mn  Mn1       1.0  0.27682  0.91283  0.05825  1.0000
  Mn  Mn2       1.0  0.72318  0.41283  0.44175  1.0000
  Mn  Mn3       1.0  0.72318  0.08717  0.94175  1.0000
  Mn  Mn4       1.0  0.27682  0.58717  0.55825  1.0000
  Mn  Mn5       1.0  0.00000  1.00000  0.00000  1.0000
  Mn  Mn6       1.0  0.00000  0.50000  0.50000  1.0000
  Cl  Cl1       1.0  0.45138  0.83453  0.08626  1.0000
  Cl  Cl2       1.0  0.54862  0.33453  0.41374  1.0000
  Cl  Cl3       1.0  0.54862  0.16547  0.91374  1.0000
  Cl  Cl4       1.0  0.45138  0.66547  0.58626  1.0000
  O   O1        1.0  0.24511  0.04520  0.96382  1.0000
  O   O2        1.0  0.75489  0.54520  0.53618  1.0000
  O   O3        1.0  0.75489  0.95480  0.03618  1.0000
  O   O4        1.0  0.24511  0.45480  0.46382  1.0000
  O   O5        1.0  0.07882  0.10900  0.93236  1.0000
  O   O6        1.0  0.92118  0.60900  0.56764  1.0000
  O   O7        1.0  0.92118  0.89100  0.06764  1.0000
  O   O8        1.0  0.07882  0.39100  0.43236  1.0000
  O   O9        1.0  0.31049  0.46450  0.66732  1.0000
  O   O10       1.0  0.68951  0.96450  0.83268  1.0000
  O   O11       1.0  0.68951  0.53550  0.33268  1.0000
  O   O12       1.0  0.31049  0.03550  0.16732  1.0000
  O   O13       1.0  0.14264  0.50510  0.61508  1.0000
  O   O14       1.0  0.85736  0.00510  0.88492  1.0000
  O   O15       1.0  0.85736  0.49490  0.38492  1.0000
  O   O16       1.0  0.14264  0.99490  0.11508  1.0000
  C   C1        1.0  0.17690  0.19480  0.85334  1.0000
  C   C2        1.0  0.82310  0.69480  0.64666  1.0000
  C   C3        1.0  0.82310  0.80520  0.14666  1.0000
  C   C4        1.0  0.17690  0.30520  0.35334  1.0000
  C   C5        1.0  0.26790  0.18990  0.83360  1.0000
  C   C6        1.0  0.73210  0.68990  0.66640  1.0000
  C   C7        1.0  0.73210  0.81010  0.16640  1.0000
  C   C8        1.0  0.26790  0.31010  0.33360  1.0000
  H   H1        1.0  0.32020  0.13110  0.86080  1.0000
  H   H2        1.0  0.67980  0.63110  0.63920  1.0000
  H   H3        1.0  0.67980  0.86890  0.13920  1.0000
  H   H4        1.0  0.32020  0.36890  0.36080  1.0000
  C   C9        1.0  0.28090  0.27240  0.77360  1.0000
  C   C10       1.0  0.71910  0.77240  0.72640  1.0000
  C   C11       1.0  0.71910  0.72760  0.22640  1.0000
  C   C12       1.0  0.28090  0.22760  0.27360  1.0000
  H   H5        1.0  0.34290  0.27040  0.76160  1.0000
  H   H6        1.0  0.65710  0.77040  0.73840  1.0000
  H   H7        1.0  0.65710  0.72960  0.23840  1.0000
  H   H8        1.0  0.34290  0.22960  0.26160  1.0000
  C   C13       1.0  0.20260  0.35800  0.73132  1.0000
  C   C14       1.0  0.79740  0.85800  0.76868  1.0000
  C   C15       1.0  0.79740  0.64200  0.26868  1.0000
  C   C16       1.0  0.20260  0.14200  0.23132  1.0000
  C   C17       1.0  0.11150  0.36170  0.74980  1.0000
  C   C18       1.0  0.88850  0.86170  0.75020  1.0000
  C   C19       1.0  0.88850  0.63830  0.25020  1.0000
  C   C20       1.0  0.11150  0.13830  0.24980  1.0000
  H   H9        1.0  0.05810  0.41820  0.72080  1.0000
  H   H10       1.0  0.94190  0.91820  0.77920  1.0000
  H   H11       1.0  0.94190  0.58180  0.27920  1.0000
  H   H12       1.0  0.05810  0.08180  0.22080  1.0000
  C   C21       1.0  0.09880  0.28160  0.81150  1.0000
  C   C22       1.0  0.90120  0.78160  0.68850  1.0000
  C   C23       1.0  0.90120  0.71840  0.18850  1.0000
  C   C24       1.0  0.09880  0.21840  0.31150  1.0000
  H   H13       1.0  0.03780  0.28610  0.82490  1.0000
  H   H14       1.0  0.96220  0.78610  0.67510  1.0000
  H   H15       1.0  0.96220  0.71390  0.17510  1.0000
  H   H16       1.0  0.03780  0.21390  0.32490  1.0000
  C   C25       1.0  0.16440  0.10890  0.92121  1.0000
  C   C26       1.0  0.83560  0.60890  0.57879  1.0000
  C   C27       1.0  0.83560  0.89110  0.07879  1.0000
  C   C28       1.0  0.16440  0.39110  0.42121  1.0000
  C   C29       1.0  0.21840  0.44760  0.66682  1.0000
  C   C30       1.0  0.78160  0.94760  0.83318  1.0000
  C   C31       1.0  0.78160  0.55240  0.33318  1.0000
  C   C32       1.0  0.21840  0.05240  0.16682  1.0000
  O   O17       1.0  0.93759  0.17071  0.03508  1.0000
  O   O18       1.0  0.06241  0.67071  0.46492  1.0000
  O   O19       1.0  0.06241  0.82929  0.96492  1.0000
  O   O20       1.0  0.93759  0.32929  0.53508  1.0000
  O   O21       1.0  0.79215  0.26370  0.95139  1.0000
  O   O22       1.0  0.20785  0.76370  0.54861  1.0000
  O   O23       1.0  0.20785  0.73630  0.04861  1.0000
  O   O24       1.0  0.79215  0.23630  0.45139  1.0000
  C   C33       1.0  0.94660  0.38690  0.99670  1.0000
  C   C34       1.0  0.05340  0.88690  0.50330  1.0000
  C   C35       1.0  0.05340  0.61310  0.00330  1.0000
  C   C36       1.0  0.94660  0.11310  0.49670  1.0000
  C   C37       1.0  0.04740  0.40120  0.05460  1.0000
  C   C38       1.0  0.95260  0.90120  0.44540  1.0000
  C   C39       1.0  0.95260  0.59880  0.94540  1.0000
  C   C40       1.0  0.04740  0.09880  0.55460  1.0000
  H   H17       1.0  0.07930  0.33480  0.09140  1.0000
  H   H18       1.0  0.92070  0.83480  0.40860  1.0000
  H   H19       1.0  0.92070  0.66520  0.90860  1.0000
  H   H20       1.0  0.07930  0.16520  0.59140  1.0000
  C   C41       1.0  0.89940  0.48630  0.94230  1.0000
  C   C42       1.0  0.10060  0.98630  0.55770  1.0000
  C   C43       1.0  0.10060  0.51370  0.05770  1.0000
  C   C44       1.0  0.89940  0.01370  0.44230  1.0000
  H   H21       1.0  0.83130  0.47700  0.90340  1.0000
  H   H22       1.0  0.16870  0.97700  0.59660  1.0000
  H   H23       1.0  0.16870  0.52300  0.09660  1.0000
  H   H24       1.0  0.83130  0.02300  0.40340  1.0000
  C   C45       1.0  0.88840  0.26500  0.99410  1.0000
  C   C46       1.0  0.11160  0.76500  0.50590  1.0000
  C   C47       1.0  0.11160  0.73500  0.00590  1.0000
  C   C48       1.0  0.88840  0.23500  0.49410  1.0000
