data_image0
_chemical_formula_structural       C4H4C24H8N4O64Yb8Cl12
_chemical_formula_sum              "C28 H12 N4 O64 Yb8 Cl12"
_cell_length_a       19.527
_cell_length_b       11.288
_cell_length_c       15.9475
_cell_angle_alpha    90
_cell_angle_beta     134.058
_cell_angle_gamma    90

_space_group_name_H-M_alt    "P 1"
_space_group_IT_number       1

loop_
  _space_group_symop_operation_xyz
  'x, y, z'

loop_
  _atom_site_type_symbol
  _atom_site_label
  _atom_site_symmetry_multiplicity
  _atom_site_fract_x
  _atom_site_fract_y
  _atom_site_fract_z
  _atom_site_occupancy
  C   C1        1.0  0.06710  0.00000  0.21090  1.0000
  C   C2        1.0  0.93290  0.00000  0.78910  1.0000
  C   C3        1.0  0.56710  0.50000  0.21090  1.0000
  C   C4        1.0  0.43290  0.50000  0.78910  1.0000
  H   H1        1.0  0.12470  0.00000  0.28880  1.0000
  H   H2        1.0  0.87530  0.00000  0.71120  1.0000
  H   H3        1.0  0.62470  0.50000  0.28880  1.0000
  H   H4        1.0  0.37530  0.50000  0.71120  1.0000
  C   C5        1.0  0.02170  0.10570  0.14960  1.0000
  C   C6        1.0  0.97830  0.10570  0.85040  1.0000
  C   C7        1.0  0.52170  0.60570  0.14960  1.0000
  C   C8        1.0  0.47830  0.60570  0.85040  1.0000
  C   C9        1.0  0.97830  0.89430  0.85040  1.0000
  C   C10       1.0  0.02170  0.89430  0.14960  1.0000
  C   C11       1.0  0.47830  0.39430  0.85040  1.0000
  C   C12       1.0  0.52170  0.39430  0.14960  1.0000
  C   C13       1.0  0.06870  0.22020  0.20400  1.0000
  C   C14       1.0  0.93130  0.22020  0.79600  1.0000
  C   C15       1.0  0.56870  0.72020  0.20400  1.0000
  C   C16       1.0  0.43130  0.72020  0.79600  1.0000
  C   C17       1.0  0.93130  0.77980  0.79600  1.0000
  C   C18       1.0  0.06870  0.77980  0.20400  1.0000
  C   C19       1.0  0.43130  0.27980  0.79600  1.0000
  C   C20       1.0  0.56870  0.27980  0.20400  1.0000
  C   C21       1.0  0.93420  0.10050  0.03530  1.0000
  C   C22       1.0  0.06580  0.10050  0.96470  1.0000
  C   C23       1.0  0.43420  0.60050  0.03530  1.0000
  C   C24       1.0  0.56580  0.60050  0.96470  1.0000
  C   C25       1.0  0.06580  0.89950  0.96470  1.0000
  C   C26       1.0  0.93420  0.89950  0.03530  1.0000
  C   C27       1.0  0.56580  0.39950  0.96470  1.0000
  C   C28       1.0  0.43420  0.39950  0.03530  1.0000
  H   H5        1.0  0.90570  0.17170  0.99570  1.0000
  H   H6        1.0  0.09430  0.17170  0.00430  1.0000
  H   H7        1.0  0.40570  0.67170  0.99570  1.0000
  H   H8        1.0  0.59430  0.67170  0.00430  1.0000
  H   H9        1.0  0.09430  0.82830  0.00430  1.0000
  H   H10       1.0  0.90570  0.82830  0.99570  1.0000
  H   H11       1.0  0.59430  0.32830  0.00430  1.0000
  H   H12       1.0  0.40570  0.32830  0.99570  1.0000
  N   N1        1.0  0.88790  0.00000  0.97790  1.0000
  N   N2        1.0  0.11210  0.00000  0.02210  1.0000
  N   N3        1.0  0.38790  0.50000  0.97790  1.0000
  N   N4        1.0  0.61210  0.50000  0.02210  1.0000
  O   O1        1.0  0.03860  0.30730  0.14100  1.0000
  O   O2        1.0  0.96140  0.30730  0.85900  1.0000
  O   O3        1.0  0.53860  0.80730  0.14100  1.0000
  O   O4        1.0  0.46140  0.80730  0.85900  1.0000
  O   O5        1.0  0.96140  0.69270  0.85900  1.0000
  O   O6        1.0  0.03860  0.69270  0.14100  1.0000
  O   O7        1.0  0.46140  0.19270  0.85900  1.0000
  O   O8        1.0  0.53860  0.19270  0.14100  1.0000
  O   O9        1.0  0.13770  0.22270  0.31290  1.0000
  O   O10       1.0  0.86230  0.22270  0.68710  1.0000
  O   O11       1.0  0.63770  0.72270  0.31290  1.0000
  O   O12       1.0  0.36230  0.72270  0.68710  1.0000
  O   O13       1.0  0.86230  0.77730  0.68710  1.0000
  O   O14       1.0  0.13770  0.77730  0.31290  1.0000
  O   O15       1.0  0.36230  0.27730  0.68710  1.0000
  O   O16       1.0  0.63770  0.27730  0.31290  1.0000
  O   O17       1.0  0.21180  0.50000  0.29670  1.0000
  O   O18       1.0  0.78820  0.50000  0.70330  1.0000
  O   O19       1.0  0.71180  0.00000  0.29670  1.0000
  O   O20       1.0  0.28820  0.00000  0.70330  1.0000
  O   O21       1.0  0.31310  0.39440  0.47750  1.0000
  O   O22       1.0  0.68690  0.39440  0.52250  1.0000
  O   O23       1.0  0.81310  0.89440  0.47750  1.0000
  O   O24       1.0  0.18690  0.89440  0.52250  1.0000
  O   O25       1.0  0.68690  0.60560  0.52250  1.0000
  O   O26       1.0  0.31310  0.60560  0.47750  1.0000
  O   O27       1.0  0.18690  0.10560  0.52250  1.0000
  O   O28       1.0  0.81310  0.10560  0.47750  1.0000
  O   O29       1.0  0.38010  0.50000  0.42010  1.0000
  O   O30       1.0  0.61990  0.50000  0.57990  1.0000
  O   O31       1.0  0.88010  0.00000  0.42010  1.0000
  O   O32       1.0  0.11990  0.00000  0.57990  1.0000
  O   O33       1.0  0.07490  0.50000  0.31520  1.0000
  O   O34       1.0  0.92510  0.50000  0.68480  1.0000
  O   O35       1.0  0.57490  0.00000  0.31520  1.0000
  O   O36       1.0  0.42510  0.00000  0.68480  1.0000
  O   O37       1.0  0.16920  0.39330  0.49400  1.0000
  O   O38       1.0  0.83080  0.39330  0.50600  1.0000
  O   O39       1.0  0.66920  0.89330  0.49400  1.0000
  O   O40       1.0  0.33080  0.89330  0.50600  1.0000
  O   O41       1.0  0.83080  0.60670  0.50600  1.0000
  O   O42       1.0  0.16920  0.60670  0.49400  1.0000
  O   O43       1.0  0.33080  0.10670  0.50600  1.0000
  O   O44       1.0  0.66920  0.10670  0.49400  1.0000
  O   O45       1.0  0.03410  0.50000  0.42630  1.0000
  O   O46       1.0  0.96590  0.50000  0.57370  1.0000
  O   O47       1.0  0.53410  0.00000  0.42630  1.0000
  O   O48       1.0  0.46590  0.00000  0.57370  1.0000
  O   O49       1.0  0.08700  0.50000  0.04750  1.0000
  O   O50       1.0  0.91300  0.50000  0.95250  1.0000
  O   O51       1.0  0.58700  0.00000  0.04750  1.0000
  O   O52       1.0  0.41300  0.00000  0.95250  1.0000
  O   O53       1.0  0.21360  0.39250  0.09210  1.0000
  O   O54       1.0  0.78640  0.39250  0.90790  1.0000
  O   O55       1.0  0.71360  0.89250  0.09210  1.0000
  O   O56       1.0  0.28640  0.89250  0.90790  1.0000
  O   O57       1.0  0.78640  0.60750  0.90790  1.0000
  O   O58       1.0  0.21360  0.60750  0.09210  1.0000
  O   O59       1.0  0.28640  0.10750  0.90790  1.0000
  O   O60       1.0  0.71360  0.10750  0.09210  1.0000
  O   O61       1.0  0.09700  0.50000  0.91280  1.0000
  O   O62       1.0  0.90300  0.50000  0.08720  1.0000
  O   O63       1.0  0.59700  0.00000  0.91280  1.0000
  O   O64       1.0  0.40300  0.00000  0.08720  1.0000
  Yb  Yb1       1.0  0.05385  0.50000  0.15932  1.0000
  Yb  Yb2       1.0  0.94615  0.50000  0.84068  1.0000
  Yb  Yb3       1.0  0.55385  0.00000  0.15932  1.0000
  Yb  Yb4       1.0  0.44615  0.00000  0.84068  1.0000
  Yb  Yb5       1.0  0.25000  0.25000  0.50000  1.0000
  Yb  Yb6       1.0  0.75000  0.25000  0.50000  1.0000
  Yb  Yb7       1.0  0.75000  0.75000  0.50000  1.0000
  Yb  Yb8       1.0  0.25000  0.75000  0.50000  1.0000
  Cl  Cl1       1.0  0.30541  0.50000  0.41760  1.0000
  Cl  Cl2       1.0  0.69459  0.50000  0.58240  1.0000
  Cl  Cl3       1.0  0.80541  0.00000  0.41760  1.0000
  Cl  Cl4       1.0  0.19459  0.00000  0.58240  1.0000
  Cl  Cl5       1.0  0.10979  0.50000  0.43120  1.0000
  Cl  Cl6       1.0  0.89021  0.50000  0.56880  1.0000
  Cl  Cl7       1.0  0.60979  0.00000  0.43120  1.0000
  Cl  Cl8       1.0  0.39021  0.00000  0.56880  1.0000
  Cl  Cl9       1.0  0.15930  0.50000  0.04200  1.0000
  Cl  Cl10      1.0  0.84070  0.50000  0.95800  1.0000
  Cl  Cl11      1.0  0.65930  0.00000  0.04200  1.0000
  Cl  Cl12      1.0  0.34070  0.00000  0.95800  1.0000
