data_image0
_chemical_formula_structural       Bi8O64C32O4H8O4H8
_chemical_formula_sum              "Bi8 O72 C32 H16"
_cell_length_a       9.7541
_cell_length_b       17.7404
_cell_length_c       14.6321
_cell_angle_alpha    90
_cell_angle_beta     97.28
_cell_angle_gamma    90

_space_group_name_H-M_alt    "P 1"
_space_group_IT_number       1

loop_
  _space_group_symop_operation_xyz
  'x, y, z'

loop_
  _atom_site_type_symbol
  _atom_site_label
  _atom_site_symmetry_multiplicity
  _atom_site_fract_x
  _atom_site_fract_y
  _atom_site_fract_z
  _atom_site_occupancy
  Bi  Bi1       1.0  0.49174  0.62223  0.15889  1.0000
  Bi  Bi2       1.0  0.00826  0.12223  0.34110  1.0000
  Bi  Bi3       1.0  0.50826  0.37777  0.84110  1.0000
  Bi  Bi4       1.0  0.99174  0.87777  0.65890  1.0000
  Bi  Bi5       1.0  0.52204  0.33604  0.41187  1.0000
  Bi  Bi6       1.0  0.97796  0.83604  0.08813  1.0000
  Bi  Bi7       1.0  0.47796  0.66396  0.58813  1.0000
  Bi  Bi8       1.0  0.02204  0.16396  0.91187  1.0000
  O   O1        1.0  0.61260  0.50040  0.20340  1.0000
  O   O2        1.0  0.88740  0.00040  0.29660  1.0000
  O   O3        1.0  0.38740  0.49960  0.79660  1.0000
  O   O4        1.0  0.11260  0.99960  0.70340  1.0000
  O   O5        1.0  0.37320  0.54530  0.26350  1.0000
  O   O6        1.0  0.12680  0.04530  0.23650  1.0000
  O   O7        1.0  0.62680  0.45470  0.73650  1.0000
  O   O8        1.0  0.87320  0.95470  0.76350  1.0000
  O   O9        1.0  0.37010  0.50810  0.07130  1.0000
  O   O10       1.0  0.12990  0.00810  0.42870  1.0000
  O   O11       1.0  0.62990  0.49190  0.92870  1.0000
  O   O12       1.0  0.87010  0.99190  0.57130  1.0000
  O   O13       1.0  0.43250  0.40890  0.99370  1.0000
  O   O14       1.0  0.06750  0.90890  0.50630  1.0000
  O   O15       1.0  0.56750  0.59110  0.00630  1.0000
  O   O16       1.0  0.93250  0.09110  0.49370  1.0000
  O   O17       1.0  0.32160  0.69740  0.22760  1.0000
  O   O18       1.0  0.17840  0.19740  0.27240  1.0000
  O   O19       1.0  0.67840  0.30260  0.77240  1.0000
  O   O20       1.0  0.82160  0.80260  0.72760  1.0000
  O   O21       1.0  0.30660  0.67450  0.04460  1.0000
  O   O22       1.0  0.19340  0.17450  0.45540  1.0000
  O   O23       1.0  0.69340  0.32550  0.95540  1.0000
  O   O24       1.0  0.80660  0.82550  0.54460  1.0000
  O   O25       1.0  0.74610  0.63650  0.16010  1.0000
  O   O26       1.0  0.75390  0.13650  0.33990  1.0000
  O   O27       1.0  0.25390  0.36350  0.83990  1.0000
  O   O28       1.0  0.24610  0.86350  0.66010  1.0000
  O   O29       1.0  0.55980  0.74980  0.12900  1.0000
  O   O30       1.0  0.94020  0.24980  0.37100  1.0000
  O   O31       1.0  0.44020  0.25020  0.87100  1.0000
  O   O32       1.0  0.05980  0.75020  0.62900  1.0000
  O   O33       1.0  0.57910  0.38520  0.25790  1.0000
  O   O34       1.0  0.92090  0.88520  0.24210  1.0000
  O   O35       1.0  0.42090  0.61480  0.74210  1.0000
  O   O36       1.0  0.07910  0.11480  0.75790  1.0000
  O   O37       1.0  0.35850  0.43520  0.33180  1.0000
  O   O38       1.0  0.14150  0.93520  0.16820  1.0000
  O   O39       1.0  0.64150  0.56480  0.66820  1.0000
  O   O40       1.0  0.85850  0.06480  0.83180  1.0000
  O   O41       1.0  0.14910  0.77910  0.20480  1.0000
  O   O42       1.0  0.35090  0.27910  0.29520  1.0000
  O   O43       1.0  0.85090  0.22090  0.79520  1.0000
  O   O44       1.0  0.64910  0.72090  0.70480  1.0000
  O   O45       1.0  0.14620  0.76280  0.02130  1.0000
  O   O46       1.0  0.35380  0.26280  0.47870  1.0000
  O   O47       1.0  0.85380  0.23720  0.97870  1.0000
  O   O48       1.0  0.64620  0.73720  0.52130  1.0000
  O   O49       1.0  0.41530  0.41670  0.52630  1.0000
  O   O50       1.0  0.08470  0.91670  0.97370  1.0000
  O   O51       1.0  0.58470  0.58330  0.47370  1.0000
  O   O52       1.0  0.91530  0.08330  0.02630  1.0000
  O   O53       1.0  0.36660  0.53600  0.55640  1.0000
  O   O54       1.0  0.13340  0.03600  0.94360  1.0000
  O   O55       1.0  0.63340  0.46400  0.44360  1.0000
  O   O56       1.0  0.86660  0.96400  0.05640  1.0000
  O   O57       1.0  0.72800  0.82540  0.09570  1.0000
  O   O58       1.0  0.77200  0.32540  0.40430  1.0000
  O   O59       1.0  0.27200  0.17460  0.90430  1.0000
  O   O60       1.0  0.22800  0.67460  0.59570  1.0000
  O   O61       1.0  0.90760  0.70920  0.11650  1.0000
  O   O62       1.0  0.59240  0.20920  0.38350  1.0000
  O   O63       1.0  0.09240  0.29080  0.88350  1.0000
  O   O64       1.0  0.40760  0.79080  0.61650  1.0000
  C   C1        1.0  0.54840  0.45270  0.24370  1.0000
  C   C2        1.0  0.95160  0.95270  0.25630  1.0000
  C   C3        1.0  0.45160  0.54730  0.75630  1.0000
  C   C4        1.0  0.04840  0.04730  0.74370  1.0000
  C   C5        1.0  0.41500  0.48050  0.28140  1.0000
  C   C6        1.0  0.08500  0.98050  0.21860  1.0000
  C   C7        1.0  0.58500  0.51950  0.71860  1.0000
  C   C8        1.0  0.91500  0.01950  0.78140  1.0000
  C   C9        1.0  0.44260  0.47590  0.01840  1.0000
  C   C10       1.0  0.05740  0.97590  0.48160  1.0000
  C   C11       1.0  0.55740  0.52410  0.98160  1.0000
  C   C12       1.0  0.94260  0.02410  0.51840  1.0000
  C   C13       1.0  0.23380  0.73390  0.17710  1.0000
  C   C14       1.0  0.26620  0.23390  0.32290  1.0000
  C   C15       1.0  0.76620  0.26610  0.82290  1.0000
  C   C16       1.0  0.73380  0.76610  0.67710  1.0000
  C   C17       1.0  0.22890  0.72270  0.07190  1.0000
  C   C18       1.0  0.27110  0.22270  0.42810  1.0000
  C   C19       1.0  0.77110  0.27730  0.92810  1.0000
  C   C20       1.0  0.72890  0.77730  0.57190  1.0000
  C   C21       1.0  0.78650  0.69690  0.13290  1.0000
  C   C22       1.0  0.71350  0.19690  0.36710  1.0000
  C   C23       1.0  0.21350  0.30310  0.86710  1.0000
  C   C24       1.0  0.28650  0.80310  0.63290  1.0000
  C   C25       1.0  0.68210  0.76320  0.11710  1.0000
  C   C26       1.0  0.81790  0.26320  0.38290  1.0000
  C   C27       1.0  0.31790  0.23680  0.88290  1.0000
  C   C28       1.0  0.18210  0.73680  0.61710  1.0000
  C   C29       1.0  0.43730  0.48580  0.52390  1.0000
  C   C30       1.0  0.06270  0.98580  0.97610  1.0000
  C   C31       1.0  0.56270  0.51420  0.47610  1.0000
  C   C32       1.0  0.93730  0.01420  0.02390  1.0000
  O   O65       1.0  0.59880  0.66390  0.31720  1.0000
  O   O66       1.0  0.90120  0.16390  0.18280  1.0000
  O   O67       1.0  0.40120  0.33610  0.68280  1.0000
  O   O68       1.0  0.09880  0.83610  0.81720  1.0000
  H   H1        1.0  0.57540  0.64790  0.26130  1.0000
  H   H2        1.0  0.92460  0.14790  0.23870  1.0000
  H   H3        1.0  0.42460  0.35210  0.73870  1.0000
  H   H4        1.0  0.07540  0.85210  0.76130  1.0000
  H   H5        1.0  0.54160  0.69960  0.32460  1.0000
  H   H6        1.0  0.95840  0.19960  0.17540  1.0000
  H   H7        1.0  0.45840  0.30040  0.67540  1.0000
  H   H8        1.0  0.04160  0.80040  0.82460  1.0000
  O   O69       1.0  0.63970  0.30370  0.56640  1.0000
  O   O70       1.0  0.86030  0.80370  0.93360  1.0000
  O   O71       1.0  0.36030  0.69630  0.43360  1.0000
  O   O72       1.0  0.13970  0.19630  0.06640  1.0000
  H   H9        1.0  0.68490  0.34290  0.58960  1.0000
  H   H10       1.0  0.81510  0.84290  0.91040  1.0000
  H   H11       1.0  0.31510  0.65710  0.41040  1.0000
  H   H12       1.0  0.18490  0.15710  0.08960  1.0000
  H   H13       1.0  0.56040  0.30620  0.58550  1.0000
  H   H14       1.0  0.93960  0.80620  0.91450  1.0000
  H   H15       1.0  0.43960  0.69380  0.41450  1.0000
  H   H16       1.0  0.06040  0.19380  0.08550  1.0000
