data_image0
_chemical_formula_structural       Fe2Ga2O24C12H12
_chemical_formula_sum              "Fe2 Ga2 O24 C12 H12"
_cell_length_a       8.1821
_cell_length_b       8.1821
_cell_length_c       13.95
_cell_angle_alpha    90
_cell_angle_beta     90
_cell_angle_gamma    120

_space_group_name_H-M_alt    "P 1"
_space_group_IT_number       1

loop_
  _space_group_symop_operation_xyz
  'x, y, z'

loop_
  _atom_site_type_symbol
  _atom_site_label
  _atom_site_symmetry_multiplicity
  _atom_site_fract_x
  _atom_site_fract_y
  _atom_site_fract_z
  _atom_site_occupancy
  Fe  Fe1       1.0  0.33330  0.66670  0.25000  1.0000
  Fe  Fe2       1.0  0.66670  0.33330  0.75000  1.0000
  Ga  Ga1       1.0  0.00000  0.00000  0.00000  1.0000
  Ga  Ga2       1.0  0.00000  0.00000  0.50000  1.0000
  O   O1        1.0  0.33760  0.88460  0.16656  1.0000
  O   O2        1.0  0.11540  0.45300  0.16656  1.0000
  O   O3        1.0  0.54700  0.66240  0.16656  1.0000
  O   O4        1.0  0.11540  0.66240  0.33344  1.0000
  O   O5        1.0  0.54700  0.88460  0.33344  1.0000
  O   O6        1.0  0.33760  0.45300  0.33344  1.0000
  O   O7        1.0  0.66240  0.11540  0.83344  1.0000
  O   O8        1.0  0.88460  0.54700  0.83344  1.0000
  O   O9        1.0  0.45300  0.33760  0.83344  1.0000
  O   O10       1.0  0.88460  0.33760  0.66656  1.0000
  O   O11       1.0  0.45300  0.11540  0.66656  1.0000
  O   O12       1.0  0.66240  0.54700  0.66656  1.0000
  O   O13       1.0  0.20460  0.01150  0.08029  1.0000
  O   O14       1.0  0.98850  0.19310  0.08029  1.0000
  O   O15       1.0  0.80690  0.79540  0.08029  1.0000
  O   O16       1.0  0.98850  0.79540  0.41971  1.0000
  O   O17       1.0  0.80690  0.01150  0.41971  1.0000
  O   O18       1.0  0.20460  0.19310  0.41971  1.0000
  O   O19       1.0  0.79540  0.98850  0.91971  1.0000
  O   O20       1.0  0.01150  0.80690  0.91971  1.0000
  O   O21       1.0  0.19310  0.20460  0.91971  1.0000
  O   O22       1.0  0.01150  0.20460  0.58029  1.0000
  O   O23       1.0  0.19310  0.98850  0.58029  1.0000
  O   O24       1.0  0.79540  0.80690  0.58029  1.0000
  C   C1        1.0  0.20710  0.87370  0.11780  1.0000
  C   C2        1.0  0.12630  0.33340  0.11780  1.0000
  C   C3        1.0  0.66660  0.79290  0.11780  1.0000
  C   C4        1.0  0.12630  0.79290  0.38220  1.0000
  C   C5        1.0  0.66660  0.87370  0.38220  1.0000
  C   C6        1.0  0.20710  0.33340  0.38220  1.0000
  C   C7        1.0  0.79290  0.12630  0.88220  1.0000
  C   C8        1.0  0.87370  0.66660  0.88220  1.0000
  C   C9        1.0  0.33340  0.20710  0.88220  1.0000
  C   C10       1.0  0.87370  0.20710  0.61780  1.0000
  C   C11       1.0  0.33340  0.12630  0.61780  1.0000
  C   C12       1.0  0.79290  0.66660  0.61780  1.0000
  H   H1        1.0  0.10280  0.75450  0.10820  1.0000
  H   H2        1.0  0.24550  0.34830  0.10820  1.0000
  H   H3        1.0  0.65170  0.89720  0.10820  1.0000
  H   H4        1.0  0.24550  0.89720  0.39180  1.0000
  H   H5        1.0  0.65170  0.75450  0.39180  1.0000
  H   H6        1.0  0.10280  0.34830  0.39180  1.0000
  H   H7        1.0  0.89720  0.24550  0.89180  1.0000
  H   H8        1.0  0.75450  0.65170  0.89180  1.0000
  H   H9        1.0  0.34830  0.10280  0.89180  1.0000
  H   H10       1.0  0.75450  0.10280  0.60820  1.0000
  H   H11       1.0  0.34830  0.24550  0.60820  1.0000
  H   H12       1.0  0.89720  0.65170  0.60820  1.0000
