data_image0
_chemical_formula_structural       Cd3C8H2C2H2O4C4H2C2H2C2H2O4C4H2C4H2C2H2C2O4C2O4
_chemical_formula_sum              "Cd3 C32 H16 O16"
_cell_length_a       9.8122
_cell_length_b       10.3615
_cell_length_c       11.787
_cell_angle_alpha    98.325
_cell_angle_beta     111.717
_cell_angle_gamma    94.508

_space_group_name_H-M_alt    "P 1"
_space_group_IT_number       1

loop_
  _space_group_symop_operation_xyz
  'x, y, z'

loop_
  _atom_site_type_symbol
  _atom_site_label
  _atom_site_symmetry_multiplicity
  _atom_site_fract_x
  _atom_site_fract_y
  _atom_site_fract_z
  _atom_site_occupancy
  Cd  Cd1       1.0  0.00000  0.00000  0.50000  1.0000
  Cd  Cd2       1.0  0.82299  0.72552  0.25180  1.0000
  Cd  Cd3       1.0  0.17701  0.27448  0.74820  1.0000
  C   C1        1.0  0.29600  0.79670  0.44580  1.0000
  C   C2        1.0  0.70400  0.20330  0.55420  1.0000
  C   C3        1.0  0.74220  0.46750  0.15230  1.0000
  C   C4        1.0  0.25780  0.53250  0.84770  1.0000
  C   C5        1.0  0.13440  0.76350  0.36170  1.0000
  C   C6        1.0  0.86560  0.23650  0.63830  1.0000
  C   C7        1.0  0.40660  0.79100  0.39890  1.0000
  C   C8        1.0  0.59340  0.20900  0.60110  1.0000
  H   H1        1.0  0.38140  0.76330  0.31410  1.0000
  H   H2        1.0  0.61860  0.23670  0.68590  1.0000
  C   C9        1.0  0.33560  0.83180  0.57440  1.0000
  C   C10       1.0  0.66440  0.16820  0.42560  1.0000
  H   H3        1.0  0.26250  0.83310  0.60690  1.0000
  H   H4        1.0  0.73750  0.16690  0.39310  1.0000
  O   O1        1.0  0.04140  0.79960  0.40830  1.0000
  O   O2        1.0  0.95860  0.20040  0.59170  1.0000
  O   O3        1.0  0.71530  0.54950  0.08330  1.0000
  O   O4        1.0  0.28470  0.45050  0.91670  1.0000
  C   C11       1.0  0.70690  0.32330  0.09660  1.0000
  C   C12       1.0  0.29310  0.67670  0.90340  1.0000
  C   C13       1.0  0.76680  0.23200  0.16840  1.0000
  C   C14       1.0  0.23320  0.76800  0.83160  1.0000
  H   H5        1.0  0.82460  0.25990  0.25260  1.0000
  H   H6        1.0  0.17540  0.74010  0.74740  1.0000
  C   C15       1.0  0.61920  0.28170  0.97150  1.0000
  C   C16       1.0  0.38080  0.71830  0.02850  1.0000
  H   H7        1.0  0.57870  0.34290  0.92290  1.0000
  H   H8        1.0  0.42130  0.65710  0.07710  1.0000
  C   C17       1.0  0.59180  0.86500  0.60470  1.0000
  C   C18       1.0  0.40820  0.13500  0.39530  1.0000
  H   H9        1.0  0.69060  0.89120  0.65760  1.0000
  H   H10       1.0  0.30940  0.10880  0.34240  1.0000
  O   O5        1.0  0.80160  0.50020  0.26940  1.0000
  O   O6        1.0  0.19840  0.49980  0.73060  1.0000
  O   O7        1.0  0.09530  0.70270  0.25530  1.0000
  O   O8        1.0  0.90470  0.29730  0.74470  1.0000
  C   C19       1.0  0.55440  0.82670  0.47800  1.0000
  C   C20       1.0  0.44560  0.17330  0.52200  1.0000
  C   C21       1.0  0.48250  0.86420  0.65260  1.0000
  C   C22       1.0  0.51750  0.13580  0.34740  1.0000
  H   H11       1.0  0.50860  0.88570  0.73800  1.0000
  H   H12       1.0  0.49140  0.11430  0.26200  1.0000
  C   C23       1.0  0.74150  0.09840  0.11600  1.0000
  C   C24       1.0  0.25850  0.90160  0.88400  1.0000
  C   C25       1.0  0.65390  0.05860  0.98990  1.0000
  C   C26       1.0  0.34610  0.94140  0.01010  1.0000
  H   H13       1.0  0.63720  0.97000  0.95340  1.0000
  H   H14       1.0  0.36280  0.03000  0.04660  1.0000
  C   C27       1.0  0.59180  0.14910  0.91860  1.0000
  C   C28       1.0  0.40820  0.85090  0.08140  1.0000
  H   H15       1.0  0.53140  0.12120  0.83490  1.0000
  H   H16       1.0  0.46860  0.87880  0.16510  1.0000
  C   C29       1.0  0.80740  0.99840  0.19480  1.0000
  C   C30       1.0  0.19260  0.00160  0.80520  1.0000
  O   O9        1.0  0.77720  0.87970  0.13970  1.0000
  O   O10       1.0  0.22280  0.12030  0.86030  1.0000
  O   O11       1.0  0.88260  0.04030  0.30600  1.0000
  O   O12       1.0  0.11740  0.95970  0.69400  1.0000
  C   C31       1.0  0.67610  0.82210  0.42930  1.0000
  C   C32       1.0  0.32390  0.17790  0.57070  1.0000
  O   O13       1.0  0.64450  0.75530  0.32410  1.0000
  O   O14       1.0  0.35550  0.24470  0.67590  1.0000
  O   O15       1.0  0.80080  0.88330  0.50070  1.0000
  O   O16       1.0  0.19920  0.11670  0.49930  1.0000
