data_image0
_chemical_formula_structural       U4O36N4C8H8C4H8C4H8C4H8C4
_chemical_formula_sum              "U4 O36 N4 C24 H32"
_cell_length_a       15.0644
_cell_length_b       14.706
_cell_length_c       14.2217
_cell_angle_alpha    90
_cell_angle_beta     104.491
_cell_angle_gamma    90

_space_group_name_H-M_alt    "P 1"
_space_group_IT_number       1

loop_
  _space_group_symop_operation_xyz
  'x, y, z'

loop_
  _atom_site_type_symbol
  _atom_site_label
  _atom_site_symmetry_multiplicity
  _atom_site_fract_x
  _atom_site_fract_y
  _atom_site_fract_z
  _atom_site_occupancy
  U   U1        1.0  0.68913  0.80129  0.97158  1.0000
  U   U2        1.0  0.31087  0.30129  0.52842  1.0000
  U   U3        1.0  0.31087  0.19871  0.02842  1.0000
  U   U4        1.0  0.68913  0.69871  0.47158  1.0000
  O   O1        1.0  0.73140  0.80920  0.86628  1.0000
  O   O2        1.0  0.26860  0.30920  0.63372  1.0000
  O   O3        1.0  0.26860  0.19080  0.13372  1.0000
  O   O4        1.0  0.73140  0.69080  0.36628  1.0000
  O   O5        1.0  0.65041  0.79280  0.07852  1.0000
  O   O6        1.0  0.34959  0.29280  0.42148  1.0000
  O   O7        1.0  0.34959  0.20720  0.92148  1.0000
  O   O8        1.0  0.65041  0.70720  0.57852  1.0000
  O   O9        1.0  0.67810  0.63525  0.95467  1.0000
  O   O10       1.0  0.32190  0.13525  0.54533  1.0000
  O   O11       1.0  0.32190  0.36475  0.04533  1.0000
  O   O12       1.0  0.67810  0.86475  0.45467  1.0000
  O   O13       1.0  0.55650  0.71326  0.88240  1.0000
  O   O14       1.0  0.44350  0.21326  0.61760  1.0000
  O   O15       1.0  0.44350  0.28674  0.11760  1.0000
  O   O16       1.0  0.55650  0.78674  0.38240  1.0000
  O   O17       1.0  0.43911  0.40019  0.59835  1.0000
  O   O18       1.0  0.56089  0.90019  0.90165  1.0000
  O   O19       1.0  0.56089  0.59981  0.40165  1.0000
  O   O20       1.0  0.43911  0.09981  0.09835  1.0000
  O   O21       1.0  0.31271  0.46810  0.52121  1.0000
  O   O22       1.0  0.68729  0.96810  0.97879  1.0000
  O   O23       1.0  0.68729  0.53190  0.47879  1.0000
  O   O24       1.0  0.31271  0.03190  0.02121  1.0000
  O   O25       1.0  0.83624  0.86622  0.07176  1.0000
  O   O26       1.0  0.16376  0.36622  0.42824  1.0000
  O   O27       1.0  0.16376  0.13378  0.92824  1.0000
  O   O28       1.0  0.83624  0.63378  0.57176  1.0000
  O   O29       1.0  0.83506  0.72044  0.05730  1.0000
  O   O30       1.0  0.16494  0.22044  0.44270  1.0000
  O   O31       1.0  0.16494  0.27956  0.94270  1.0000
  O   O32       1.0  0.83506  0.77956  0.55730  1.0000
  O   O33       1.0  0.95352  0.78803  0.15210  1.0000
  O   O34       1.0  0.04648  0.28803  0.34790  1.0000
  O   O35       1.0  0.04648  0.21197  0.84790  1.0000
  O   O36       1.0  0.95352  0.71197  0.65210  1.0000
  N   N1        1.0  0.87748  0.79149  0.09520  1.0000
  N   N2        1.0  0.12252  0.29149  0.40480  1.0000
  N   N3        1.0  0.12252  0.20851  0.90480  1.0000
  N   N4        1.0  0.87748  0.70851  0.59520  1.0000
  C   C1        1.0  0.59570  0.63780  0.90390  1.0000
  C   C2        1.0  0.40430  0.13780  0.59610  1.0000
  C   C3        1.0  0.40430  0.36220  0.09610  1.0000
  C   C4        1.0  0.59570  0.86220  0.40390  1.0000
  C   C5        1.0  0.54570  0.54950  0.87500  1.0000
  C   C6        1.0  0.45430  0.04950  0.62500  1.0000
  C   C7        1.0  0.45430  0.45050  0.12500  1.0000
  C   C8        1.0  0.54570  0.95050  0.37500  1.0000
  H   H1        1.0  0.51560  0.53130  0.92660  1.0000
  H   H2        1.0  0.48440  0.03130  0.57340  1.0000
  H   H3        1.0  0.48440  0.46870  0.07340  1.0000
  H   H4        1.0  0.51560  0.96870  0.42660  1.0000
  H   H5        1.0  0.59100  0.50180  0.87090  1.0000
  H   H6        1.0  0.40900  0.00180  0.62910  1.0000
  H   H7        1.0  0.40900  0.49820  0.12910  1.0000
  H   H8        1.0  0.59100  0.99820  0.37090  1.0000
  C   C9        1.0  0.47304  0.55320  0.77810  1.0000
  C   C10       1.0  0.52696  0.05320  0.72190  1.0000
  C   C11       1.0  0.52696  0.44680  0.22190  1.0000
  C   C12       1.0  0.47304  0.94680  0.27810  1.0000
  H   H9        1.0  0.43650  0.49640  0.77000  1.0000
  H   H10       1.0  0.56350  0.99640  0.73000  1.0000
  H   H11       1.0  0.56350  0.50360  0.23000  1.0000
  H   H12       1.0  0.43650  0.00360  0.27000  1.0000
  H   H13       1.0  0.43090  0.60450  0.77950  1.0000
  H   H14       1.0  0.56910  0.10450  0.72050  1.0000
  H   H15       1.0  0.56910  0.39550  0.22050  1.0000
  H   H16       1.0  0.43090  0.89550  0.27950  1.0000
  C   C13       1.0  0.51430  0.56460  0.69140  1.0000
  C   C14       1.0  0.48570  0.06460  0.80860  1.0000
  C   C15       1.0  0.48570  0.43540  0.30860  1.0000
  C   C16       1.0  0.51430  0.93540  0.19140  1.0000
  H   H17       1.0  0.55840  0.51470  0.69130  1.0000
  H   H18       1.0  0.44160  0.01470  0.80870  1.0000
  H   H19       1.0  0.44160  0.48530  0.30870  1.0000
  H   H20       1.0  0.55840  0.98530  0.19130  1.0000
  H   H21       1.0  0.54840  0.62280  0.69770  1.0000
  H   H22       1.0  0.45160  0.12280  0.80230  1.0000
  H   H23       1.0  0.45160  0.37720  0.30230  1.0000
  H   H24       1.0  0.54840  0.87720  0.19770  1.0000
  C   C17       1.0  0.44060  0.56380  0.59490  1.0000
  C   C18       1.0  0.55940  0.06380  0.90510  1.0000
  C   C19       1.0  0.55940  0.43620  0.40510  1.0000
  C   C20       1.0  0.44060  0.93620  0.09490  1.0000
  H   H25       1.0  0.39310  0.60950  0.59810  1.0000
  H   H26       1.0  0.60690  0.10950  0.90190  1.0000
  H   H27       1.0  0.60690  0.39050  0.40190  1.0000
  H   H28       1.0  0.39310  0.89050  0.09810  1.0000
  H   H29       1.0  0.46890  0.58200  0.54200  1.0000
  H   H30       1.0  0.53110  0.08200  0.95800  1.0000
  H   H31       1.0  0.53110  0.41800  0.45800  1.0000
  H   H32       1.0  0.46890  0.91800  0.04200  1.0000
  C   C21       1.0  0.39570  0.47310  0.57100  1.0000
  C   C22       1.0  0.60430  0.97310  0.92900  1.0000
  C   C23       1.0  0.60430  0.52690  0.42900  1.0000
  C   C24       1.0  0.39570  0.02690  0.07100  1.0000
