data_image0
_chemical_formula_structural       Cu2O12N6C6H2C6H2C2H2C4H2C4H2C2H2C8H2C2H2C4H2C2H2C4H2C2H2C4H2C2H2C4H2C2H2C2H2C2H2
_chemical_formula_sum              "Cu2 O12 N6 C62 H36"
_cell_length_a       11.088
_cell_length_b       13.556
_cell_length_c       14.48
_cell_angle_alpha    66.3
_cell_angle_beta     77.995
_cell_angle_gamma    80.839

_space_group_name_H-M_alt    "P 1"
_space_group_IT_number       1

loop_
  _space_group_symop_operation_xyz
  'x, y, z'

loop_
  _atom_site_type_symbol
  _atom_site_label
  _atom_site_symmetry_multiplicity
  _atom_site_fract_x
  _atom_site_fract_y
  _atom_site_fract_z
  _atom_site_occupancy
  Cu  Cu1       1.0  0.82202  0.05970  0.77937  1.0000
  Cu  Cu2       1.0  0.17798  0.94030  0.22063  1.0000
  O   O1        1.0  0.82187  0.92659  0.90569  1.0000
  O   O2        1.0  0.17813  0.07341  0.09431  1.0000
  O   O3        1.0  0.86029  0.86765  0.77953  1.0000
  O   O4        1.0  0.13971  0.13235  0.22047  1.0000
  O   O5        1.0  0.78140  0.33816  0.77445  1.0000
  O   O6        1.0  0.21860  0.66184  0.22555  1.0000
  O   O7        1.0  0.77898  0.16732  0.88301  1.0000
  O   O8        1.0  0.22102  0.83268  0.11699  1.0000
  O   O9        1.0  0.84317  0.15046  0.63336  1.0000
  O   O10       1.0  0.15683  0.84954  0.36664  1.0000
  O   O11       1.0  0.71780  0.29380  0.63708  1.0000
  O   O12       1.0  0.28220  0.70620  0.36292  1.0000
  N   N1        1.0  0.84010  0.41956  0.15654  1.0000
  N   N2        1.0  0.15990  0.58044  0.84346  1.0000
  N   N3        1.0  0.64015  0.05634  0.78384  1.0000
  N   N4        1.0  0.35985  0.94366  0.21616  1.0000
  N   N5        1.0  0.00305  0.06436  0.77697  1.0000
  N   N6        1.0  0.99695  0.93564  0.22303  1.0000
  C   C1        1.0  0.84370  0.85043  0.87212  1.0000
  C   C2        1.0  0.15630  0.14957  0.12788  1.0000
  C   C3        1.0  0.84850  0.73665  0.94948  1.0000
  C   C4        1.0  0.15150  0.26335  0.05052  1.0000
  C   C5        1.0  0.84210  0.65152  0.92130  1.0000
  C   C6        1.0  0.15790  0.34848  0.07870  1.0000
  H   H1        1.0  0.83927  0.66408  0.85371  1.0000
  H   H2        1.0  0.16073  0.33592  0.14629  1.0000
  C   C7        1.0  0.83980  0.54771  0.99488  1.0000
  C   C8        1.0  0.16020  0.45229  0.00512  1.0000
  C   C9        1.0  0.84590  0.52933  0.09712  1.0000
  C   C10       1.0  0.15410  0.47067  0.90288  1.0000
  C   C11       1.0  0.85770  0.61320  0.12565  1.0000
  C   C12       1.0  0.14230  0.38680  0.87435  1.0000
  H   H3        1.0  0.86497  0.60043  0.19241  1.0000
  H   H4        1.0  0.13503  0.39957  0.80759  1.0000
  C   C13       1.0  0.85820  0.71637  0.05079  1.0000
  C   C14       1.0  0.14180  0.28363  0.94921  1.0000
  H   H5        1.0  0.86511  0.77405  0.06810  1.0000
  H   H6        1.0  0.13489  0.22595  0.93190  1.0000
  C   C15       1.0  0.82960  0.44317  0.99332  1.0000
  C   C16       1.0  0.17040  0.55683  0.00668  1.0000
  C   C17       1.0  0.81620  0.41103  0.91718  1.0000
  C   C18       1.0  0.18380  0.58897  0.08282  1.0000
  H   H7        1.0  0.81600  0.46091  0.85051  1.0000
  H   H8        1.0  0.18400  0.53909  0.14949  1.0000
  C   C19       1.0  0.80300  0.30238  0.94214  1.0000
  C   C20       1.0  0.19700  0.69762  0.05786  1.0000
  C   C21       1.0  0.80250  0.22814  0.04300  1.0000
  C   C22       1.0  0.19750  0.77186  0.95700  1.0000
  H   H9        1.0  0.79242  0.15615  0.05827  1.0000
  H   H10       1.0  0.20758  0.84385  0.94173  1.0000
  C   C23       1.0  0.81640  0.25770  0.11990  1.0000
  C   C24       1.0  0.18360  0.74230  0.88010  1.0000
  H   H11       1.0  0.81675  0.20726  0.18636  1.0000
  H   H12       1.0  0.18325  0.79274  0.81364  1.0000
  C   C25       1.0  0.82990  0.36657  0.09455  1.0000
  C   C26       1.0  0.17010  0.63343  0.90545  1.0000
  C   C27       1.0  0.78610  0.26336  0.86260  1.0000
  C   C28       1.0  0.21390  0.73664  0.13740  1.0000
  C   C29       1.0  0.82750  0.37282  0.26537  1.0000
  C   C30       1.0  0.17250  0.62718  0.73463  1.0000
  C   C31       1.0  0.90180  0.28120  0.31350  1.0000
  C   C32       1.0  0.09820  0.71880  0.68650  1.0000
  H   H13       1.0  0.96109  0.24993  0.27537  1.0000
  H   H14       1.0  0.03891  0.75007  0.72463  1.0000
  C   C33       1.0  0.88640  0.23690  0.41960  1.0000
  C   C34       1.0  0.11360  0.76310  0.58040  1.0000
  H   H15       1.0  0.93426  0.17437  0.45257  1.0000
  H   H16       1.0  0.06574  0.82563  0.54743  1.0000
  C   C35       1.0  0.80040  0.28480  0.47705  1.0000
  C   C36       1.0  0.19960  0.71520  0.52295  1.0000
  C   C37       1.0  0.72840  0.37700  0.42700  1.0000
  C   C38       1.0  0.27160  0.62300  0.57300  1.0000
  H   H17       1.0  0.67120  0.41027  0.46468  1.0000
  H   H18       1.0  0.32880  0.58973  0.53532  1.0000
  C   C39       1.0  0.74080  0.42000  0.32130  1.0000
  C   C40       1.0  0.25920  0.58000  0.67870  1.0000
  H   H19       1.0  0.69061  0.48081  0.28834  1.0000
  H   H20       1.0  0.30939  0.51919  0.71166  1.0000
  C   C41       1.0  0.78590  0.24050  0.59118  1.0000
  C   C42       1.0  0.21410  0.75950  0.40882  1.0000
  C   C43       1.0  0.60030  0.03530  0.71590  1.0000
  C   C44       1.0  0.39970  0.96470  0.28410  1.0000
  H   H21       1.0  0.65869  0.02063  0.66580  1.0000
  H   H22       1.0  0.34131  0.97937  0.33420  1.0000
  C   C45       1.0  0.47710  0.03330  0.71330  1.0000
  C   C46       1.0  0.52290  0.96670  0.28670  1.0000
  H   H23       1.0  0.45500  0.01657  0.66315  1.0000
  H   H24       1.0  0.54500  0.98343  0.33685  1.0000
  C   C47       1.0  0.38830  0.05570  0.78355  1.0000
  C   C48       1.0  0.61170  0.94430  0.21645  1.0000
  C   C49       1.0  0.42990  0.08140  0.85380  1.0000
  C   C50       1.0  0.57010  0.91860  0.14620  1.0000
  H   H25       1.0  0.37293  0.09914  0.90294  1.0000
  H   H26       1.0  0.62707  0.90086  0.09706  1.0000
  C   C51       1.0  0.55490  0.08130  0.85220  1.0000
  C   C52       1.0  0.44510  0.91870  0.14780  1.0000
  H   H27       1.0  0.58023  0.09929  0.90036  1.0000
  H   H28       1.0  0.41977  0.90071  0.09964  1.0000
  C   C53       1.0  0.25470  0.05860  0.78133  1.0000
  C   C54       1.0  0.74530  0.94140  0.21867  1.0000
  C   C55       1.0  0.21280  0.05920  0.69690  1.0000
  C   C56       1.0  0.78720  0.94080  0.30310  1.0000
  H   H29       1.0  0.26925  0.05766  0.64009  1.0000
  H   H30       1.0  0.73075  0.94234  0.35991  1.0000
  C   C57       1.0  0.08730  0.06210  0.69740  1.0000
  C   C58       1.0  0.91270  0.93790  0.30260  1.0000
  H   H31       1.0  0.06107  0.06240  0.64035  1.0000
  H   H32       1.0  0.93893  0.93760  0.35965  1.0000
  C   C59       1.0  0.04290  0.06198  0.85861  1.0000
  C   C60       1.0  0.95710  0.93802  0.14139  1.0000
  H   H33       1.0  0.98456  0.06228  0.91490  1.0000
  H   H34       1.0  0.01544  0.93772  0.08510  1.0000
  C   C61       1.0  0.16640  0.05909  0.86382  1.0000
  C   C62       1.0  0.83360  0.94091  0.13618  1.0000
  H   H35       1.0  0.18983  0.05750  0.92247  1.0000
  H   H36       1.0  0.81017  0.94250  0.07753  1.0000
