data_image0
_chemical_formula_structural       O2Cu2O4N6O2C10H2O2C4O2C6H2C4H2C2H2C6H2C2H2C2H2C2H2C6H2C2H2C4H2C2H2C4H2C2H2C2H2C2H6
_chemical_formula_sum              "O12 Cu2 N6 C62 H36"
_cell_length_a       11.072
_cell_length_b       13.535
_cell_length_c       14.475
_cell_angle_alpha    66.229
_cell_angle_beta     77.52
_cell_angle_gamma    80.473

_space_group_name_H-M_alt    "P 1"
_space_group_IT_number       1

loop_
  _space_group_symop_operation_xyz
  'x, y, z'

loop_
  _atom_site_type_symbol
  _atom_site_label
  _atom_site_symmetry_multiplicity
  _atom_site_fract_x
  _atom_site_fract_y
  _atom_site_fract_z
  _atom_site_occupancy
  O   O1        1.0  0.67731  0.07203  0.09423  1.0000
  O   O2        1.0  0.32269  0.92797  0.90577  1.0000
  Cu  Cu1       1.0  0.67622  0.93960  0.22096  1.0000
  Cu  Cu2       1.0  0.32378  0.06040  0.77904  1.0000
  O   O3        1.0  0.63844  0.13137  0.22027  1.0000
  O   O4        1.0  0.36156  0.86863  0.77973  1.0000
  O   O5        1.0  0.65415  0.84839  0.36682  1.0000
  O   O6        1.0  0.34585  0.15161  0.63318  1.0000
  N   N1        1.0  0.66060  0.57984  0.84268  1.0000
  N   N2        1.0  0.33940  0.42016  0.15732  1.0000
  N   N3        1.0  0.49517  0.93461  0.22397  1.0000
  N   N4        1.0  0.50483  0.06539  0.77603  1.0000
  N   N5        1.0  0.85804  0.94223  0.21670  1.0000
  N   N6        1.0  0.14196  0.05777  0.78330  1.0000
  O   O7        1.0  0.72240  0.66062  0.22360  1.0000
  O   O8        1.0  0.27760  0.33938  0.77640  1.0000
  C   C1        1.0  0.71500  0.73588  0.13839  1.0000
  C   C2        1.0  0.28500  0.26412  0.86161  1.0000
  C   C3        1.0  0.65472  0.14893  0.12723  1.0000
  C   C4        1.0  0.34528  0.85107  0.87277  1.0000
  C   C5        1.0  0.69820  0.69687  0.05660  1.0000
  C   C6        1.0  0.30180  0.30313  0.94340  1.0000
  C   C7        1.0  0.69980  0.77084  0.95580  1.0000
  C   C8        1.0  0.30020  0.22916  0.04420  1.0000
  C   C9        1.0  0.68680  0.74137  0.87891  1.0000
  C   C10       1.0  0.31320  0.25863  0.12109  1.0000
  H   H1        1.0  0.68781  0.79169  0.81215  1.0000
  H   H2        1.0  0.31219  0.20831  0.18785  1.0000
  O   O9        1.0  0.72184  0.83130  0.11624  1.0000
  O   O10       1.0  0.27816  0.16870  0.88376  1.0000
  C   C11       1.0  0.67180  0.63264  0.90479  1.0000
  C   C12       1.0  0.32820  0.36736  0.09521  1.0000
  C   C13       1.0  0.67120  0.55591  0.00563  1.0000
  C   C14       1.0  0.32880  0.44409  0.99437  1.0000
  O   O11       1.0  0.78060  0.70424  0.36161  1.0000
  O   O12       1.0  0.21940  0.29576  0.63839  1.0000
  C   C15       1.0  0.68430  0.58868  0.08190  1.0000
  C   C16       1.0  0.31570  0.41132  0.91810  1.0000
  C   C17       1.0  0.66050  0.45225  0.00407  1.0000
  C   C18       1.0  0.33950  0.54775  0.99593  1.0000
  C   C19       1.0  0.65750  0.34748  0.07818  1.0000
  C   C20       1.0  0.34250  0.65252  0.92182  1.0000
  H   H3        1.0  0.66001  0.33474  0.14588  1.0000
  H   H4        1.0  0.33999  0.66526  0.85412  1.0000
  C   C21       1.0  0.65060  0.26232  0.05006  1.0000
  C   C22       1.0  0.34940  0.73768  0.94994  1.0000
  C   C23       1.0  0.64150  0.28304  0.94883  1.0000
  C   C24       1.0  0.35850  0.71696  0.05117  1.0000
  H   H5        1.0  0.63436  0.22542  0.93146  1.0000
  H   H6        1.0  0.36564  0.77458  0.06854  1.0000
  C   C25       1.0  0.64280  0.38595  0.87416  1.0000
  C   C26       1.0  0.35720  0.61405  0.12584  1.0000
  H   H7        1.0  0.63585  0.39860  0.80735  1.0000
  H   H8        1.0  0.36415  0.60140  0.19265  1.0000
  C   C27       1.0  0.65490  0.47026  0.90214  1.0000
  C   C28       1.0  0.34510  0.52974  0.09786  1.0000
  C   C29       1.0  0.67280  0.62648  0.73417  1.0000
  C   C30       1.0  0.32720  0.37352  0.26583  1.0000
  C   C31       1.0  0.59940  0.71940  0.68623  1.0000
  C   C32       1.0  0.40060  0.28060  0.31377  1.0000
  H   H9        1.0  0.54103  0.75181  0.72452  1.0000
  H   H10       1.0  0.45897  0.24819  0.27548  1.0000
  C   C33       1.0  0.61480  0.76320  0.57999  1.0000
  C   C34       1.0  0.38520  0.23680  0.42001  1.0000
  H   H11       1.0  0.56764  0.82656  0.54708  1.0000
  H   H12       1.0  0.43236  0.17344  0.45292  1.0000
  C   C35       1.0  0.77100  0.62170  0.57190  1.0000
  C   C36       1.0  0.22900  0.37830  0.42810  1.0000
  H   H13       1.0  0.82803  0.58834  0.53365  1.0000
  H   H14       1.0  0.17197  0.41166  0.46635  1.0000
  C   C37       1.0  0.75960  0.57820  0.67706  1.0000
  C   C38       1.0  0.24040  0.42180  0.32294  1.0000
  H   H15       1.0  0.80978  0.51686  0.70947  1.0000
  H   H16       1.0  0.19022  0.48314  0.29053  1.0000
  C   C39       1.0  0.69900  0.71419  0.52249  1.0000
  C   C40       1.0  0.30100  0.28581  0.47751  1.0000
  C   C41       1.0  0.71200  0.75840  0.40838  1.0000
  C   C42       1.0  0.28800  0.24160  0.59162  1.0000
  C   C43       1.0  0.40880  0.93530  0.30357  1.0000
  C   C44       1.0  0.59120  0.06470  0.69643  1.0000
  H   H17       1.0  0.43408  0.93374  0.36144  1.0000
  H   H18       1.0  0.56592  0.06626  0.63856  1.0000
  C   C45       1.0  0.28470  0.93840  0.30401  1.0000
  C   C46       1.0  0.71530  0.06160  0.69599  1.0000
  H   H19       1.0  0.22773  0.93902  0.36133  1.0000
  H   H20       1.0  0.77227  0.06098  0.63867  1.0000
  C   C47       1.0  0.24365  0.94039  0.21949  1.0000
  C   C48       1.0  0.75635  0.05961  0.78051  1.0000
  C   C49       1.0  0.33352  0.94158  0.13577  1.0000
  C   C50       1.0  0.66648  0.05842  0.86423  1.0000
  H   H21       1.0  0.31076  0.94439  0.07650  1.0000
  H   H22       1.0  0.68924  0.05561  0.92350  1.0000
  C   C51       1.0  0.45654  0.93855  0.14139  1.0000
  C   C52       1.0  0.54346  0.06145  0.85861  1.0000
  H   H23       1.0  0.51574  0.93929  0.08476  1.0000
  H   H24       1.0  0.48426  0.06071  0.91524  1.0000
  C   C53       1.0  0.10985  0.94253  0.21739  1.0000
  C   C54       1.0  0.89015  0.05747  0.78261  1.0000
  C   C55       1.0  0.01960  0.96430  0.28810  1.0000
  C   C56       1.0  0.98040  0.03570  0.71190  1.0000
  H   H25       1.0  0.04137  0.98017  0.33885  1.0000
  H   H26       1.0  0.95863  0.01983  0.66115  1.0000
  C   C57       1.0  0.89600  0.96330  0.28580  1.0000
  C   C58       1.0  0.10400  0.03670  0.71420  1.0000
  H   H27       1.0  0.83674  0.97838  0.33574  1.0000
  H   H28       1.0  0.16326  0.02162  0.66426  1.0000
  C   C59       1.0  0.94490  0.91870  0.14750  1.0000
  C   C60       1.0  0.05510  0.08130  0.85250  1.0000
  H   H29       1.0  0.92030  0.90160  0.09856  1.0000
  H   H30       1.0  0.07970  0.09840  0.90144  1.0000
  C   C61       1.0  0.07010  0.91870  0.14550  1.0000
  C   C62       1.0  0.92990  0.08130  0.85450  1.0000
  H   H31       1.0  0.12792  0.90251  0.09541  1.0000
  H   H32       1.0  0.87208  0.09749  0.90459  1.0000
  H   H33       1.0  0.68100  0.54000  0.14760  1.0000
  H   H34       1.0  0.31900  0.46000  0.85240  1.0000
  H   H35       1.0  0.71700  0.84100  0.93700  1.0000
  H   H36       1.0  0.28300  0.15900  0.06300  1.0000
