data_image0
_chemical_formula_structural       P4W36O124Fe2C2H2C2H2C2H4C2H4C2H4C2H4C2H2C2H2C2H2C2H2C2H4C2H4C2H4C2H4C2H2C2H2C2H4C2H4C2H4C2H4N22C2H2N2C2H2N10C2H2N2C2H2
_chemical_formula_sum              "P4 W36 O124 Fe2 C48 H72 N36"
_cell_length_a       14.841
_cell_length_b       14.922
_cell_length_c       22.27
_cell_angle_alpha    89.452
_cell_angle_beta     89.428
_cell_angle_gamma    75.592

_space_group_name_H-M_alt    "P 1"
_space_group_IT_number       1

loop_
  _space_group_symop_operation_xyz
  'x, y, z'

loop_
  _atom_site_type_symbol
  _atom_site_label
  _atom_site_symmetry_multiplicity
  _atom_site_fract_x
  _atom_site_fract_y
  _atom_site_fract_z
  _atom_site_occupancy
  P   P1        1.0  0.23380  0.12290  0.27389  1.0000
  P   P2        1.0  0.76620  0.87710  0.72611  1.0000
  P   P3        1.0  0.26780  0.37740  0.27213  1.0000
  P   P4        1.0  0.73220  0.62260  0.72787  1.0000
  W   W1        1.0  0.13798  0.41926  0.40594  1.0000
  W   W2        1.0  0.86202  0.58074  0.59406  1.0000
  W   W3        1.0  0.17754  0.60998  0.22531  1.0000
  W   W4        1.0  0.82246  0.39002  0.77469  1.0000
  W   W5        1.0  0.29155  0.56737  0.35700  1.0000
  W   W6        1.0  0.70845  0.43263  0.64300  1.0000
  W   W7        1.0  0.36179  0.08187  0.40748  1.0000
  W   W8        1.0  0.63821  0.91813  0.59252  1.0000
  W   W9        1.0  0.10848  0.17643  0.40914  1.0000
  W   W10       1.0  0.89152  0.82357  0.59086  1.0000
  W   W11       1.0  0.20805  0.93397  0.36194  1.0000
  W   W12       1.0  0.79195  0.06603  0.63806  1.0000
  W   W13       1.0  0.38732  0.32822  0.13342  1.0000
  W   W14       1.0  0.61268  0.67178  0.86658  1.0000
  W   W15       1.0  0.32389  0.89052  0.23012  1.0000
  W   W16       1.0  0.67611  0.10948  0.76988  1.0000
  W   W17       1.0  0.39135  0.32481  0.40674  1.0000
  W   W18       1.0  0.60865  0.67519  0.59326  1.0000
  W   W19       1.0  0.50968  0.28001  0.27691  1.0000
  W   W20       1.0  0.49032  0.71999  0.72309  1.0000
  W   W21       1.0  0.09005  0.97730  0.23147  1.0000
  W   W22       1.0  0.90995  0.02270  0.76853  1.0000
  W   W23       1.0  0.99140  0.22083  0.27972  1.0000
  W   W24       1.0  0.00860  0.77917  0.72028  1.0000
  W   W25       1.0  0.47705  0.03831  0.27628  1.0000
  W   W26       1.0  0.52295  0.96169  0.72372  1.0000
  W   W27       1.0  0.41128  0.52330  0.22654  1.0000
  W   W28       1.0  0.58872  0.47670  0.77346  1.0000
  W   W29       1.0  0.02412  0.46258  0.27501  1.0000
  W   W30       1.0  0.97588  0.53742  0.72499  1.0000
  W   W31       1.0  0.15628  0.40974  0.13385  1.0000
  W   W32       1.0  0.84372  0.59026  0.86615  1.0000
  W   W33       1.0  0.34590  0.09015  0.13540  1.0000
  W   W34       1.0  0.65410  0.90985  0.86460  1.0000
  W   W35       1.0  0.11485  0.17184  0.13574  1.0000
  W   W36       1.0  0.88515  0.82816  0.86426  1.0000
  O   O1        1.0  0.23750  0.15030  0.20760  1.0000
  O   O2        1.0  0.76250  0.84970  0.79240  1.0000
  O   O3        1.0  0.32460  0.11900  0.30550  1.0000
  O   O4        1.0  0.67540  0.88100  0.69450  1.0000
  O   O5        1.0  0.15060  0.18430  0.30640  1.0000
  O   O6        1.0  0.84940  0.81570  0.69360  1.0000
  O   O7        1.0  0.21800  0.02060  0.27350  1.0000
  O   O8        1.0  0.78200  0.97940  0.72650  1.0000
  O   O9        1.0  0.28100  0.47980  0.27150  1.0000
  O   O10       1.0  0.71900  0.52020  0.72850  1.0000
  O   O11       1.0  0.35070  0.31580  0.30440  1.0000
  O   O12       1.0  0.64930  0.68420  0.69560  1.0000
  O   O13       1.0  0.17500  0.38230  0.30440  1.0000
  O   O14       1.0  0.82500  0.61770  0.69560  1.0000
  O   O15       1.0  0.26380  0.34910  0.20580  1.0000
  O   O16       1.0  0.73620  0.65090  0.79420  1.0000
  O   O17       1.0  0.46480  0.27480  0.19760  1.0000
  O   O18       1.0  0.53520  0.72520  0.80240  1.0000
  O   O19       1.0  0.50300  0.15620  0.28880  1.0000
  O   O20       1.0  0.49700  0.84380  0.71120  1.0000
  O   O21       1.0  0.43490  0.07650  0.19770  1.0000
  O   O22       1.0  0.56510  0.92350  0.80230  1.0000
  O   O23       1.0  0.11300  0.71220  0.19520  1.0000
  O   O24       1.0  0.88700  0.28780  0.80480  1.0000
  O   O25       1.0  0.49580  0.57090  0.19870  1.0000
  O   O26       1.0  0.50420  0.42910  0.80130  1.0000
  O   O27       1.0  0.38920  0.78950  0.20220  1.0000
  O   O28       1.0  0.61080  0.21050  0.79780  1.0000
  O   O29       1.0  0.30310  0.64370  0.41110  1.0000
  O   O30       1.0  0.69690  0.35630  0.58890  1.0000
  O   O31       1.0  0.43240  0.33180  0.47630  1.0000
  O   O32       1.0  0.56760  0.66820  0.52370  1.0000
  O   O33       1.0  0.35300  0.21140  0.12500  1.0000
  O   O34       1.0  0.64700  0.78860  0.87500  1.0000
  O   O35       1.0  0.23720  0.14990  0.42270  1.0000
  O   O36       1.0  0.76280  0.85010  0.57730  1.0000
  O   O37       1.0  0.10820  0.92040  0.30970  1.0000
  O   O38       1.0  0.89180  0.07960  0.69030  1.0000
  O   O39       1.0  0.06620  0.17160  0.47960  1.0000
  O   O40       1.0  0.93380  0.82840  0.52040  1.0000
  O   O41       1.0  0.39990  0.04390  0.47870  1.0000
  O   O42       1.0  0.60010  0.95610  0.52130  1.0000
  O   O43       1.0  0.30110  0.61010  0.19950  1.0000
  O   O44       1.0  0.69890  0.38990  0.80050  1.0000
  O   O45       1.0  0.00420  0.92970  0.20410  1.0000
  O   O46       1.0  0.99580  0.07030  0.79590  1.0000
  O   O47       1.0  0.29230  0.85170  0.30860  1.0000
  O   O48       1.0  0.70770  0.14830  0.69140  1.0000
  O   O49       1.0  0.14910  0.28480  0.12470  1.0000
  O   O50       1.0  0.85090  0.71520  0.87530  1.0000
  O   O51       1.0  0.39190  0.57870  0.30460  1.0000
  O   O52       1.0  0.60810  0.42130  0.69540  1.0000
  O   O53       1.0  0.46430  0.31720  0.07460  1.0000
  O   O54       1.0  0.53570  0.68280  0.92540  1.0000
  O   O55       1.0  0.39660  0.19550  0.40590  1.0000
  O   O56       1.0  0.60340  0.80450  0.59410  1.0000
  O   O57       1.0  0.03030  0.47440  0.35960  1.0000
  O   O58       1.0  0.96970  0.52560  0.64040  1.0000
  O   O59       1.0  0.19330  0.52100  0.38600  1.0000
  O   O60       1.0  0.80670  0.47900  0.61400  1.0000
  O   O61       1.0  0.58760  0.97440  0.26280  1.0000
  O   O62       1.0  0.41240  0.02560  0.73720  1.0000
  O   O63       1.0  0.47040  0.02460  0.36240  1.0000
  O   O64       1.0  0.52960  0.97540  0.63760  1.0000
  O   O65       1.0  0.17440  0.52470  0.16250  1.0000
  O   O66       1.0  0.82560  0.47530  0.83750  1.0000
  O   O67       1.0  0.62500  0.26010  0.26580  1.0000
  O   O68       1.0  0.37500  0.73990  0.73420  1.0000
  O   O69       1.0  0.87530  0.24200  0.26920  1.0000
  O   O70       1.0  0.12470  0.75800  0.73080  1.0000
  O   O71       1.0  0.19690  0.85920  0.41760  1.0000
  O   O72       1.0  0.80310  0.14080  0.58240  1.0000
  O   O73       1.0  0.26200  0.35120  0.42030  1.0000
  O   O74       1.0  0.73800  0.64880  0.57970  1.0000
  O   O75       1.0  0.20850  0.64550  0.30370  1.0000
  O   O76       1.0  0.79150  0.35450  0.69630  1.0000
  O   O77       1.0  0.09960  0.45640  0.47700  1.0000
  O   O78       1.0  0.90040  0.54360  0.52300  1.0000
  O   O79       1.0  0.01990  0.08880  0.26770  1.0000
  O   O80       1.0  0.98010  0.91120  0.73230  1.0000
  O   O81       1.0  0.99630  0.20040  0.36490  1.0000
  O   O82       1.0  0.00370  0.79960  0.63510  1.0000
  O   O83       1.0  0.32800  0.97300  0.16650  1.0000
  O   O84       1.0  0.67200  0.02700  0.83350  1.0000
  O   O85       1.0  0.91350  0.52480  0.26210  1.0000
  O   O86       1.0  0.08650  0.47520  0.73790  1.0000
  O   O87       1.0  0.30660  0.98060  0.38920  1.0000
  O   O88       1.0  0.69340  0.01940  0.61080  1.0000
  O   O89       1.0  0.08520  0.45450  0.07380  1.0000
  O   O90       1.0  0.91480  0.54550  0.92620  1.0000
  O   O91       1.0  0.41720  0.04570  0.07490  1.0000
  O   O92       1.0  0.58280  0.95430  0.92510  1.0000
  O   O93       1.0  0.10690  0.05460  0.16610  1.0000
  O   O94       1.0  0.89310  0.94540  0.83390  1.0000
  O   O95       1.0  0.48100  0.41220  0.26380  1.0000
  O   O96       1.0  0.51900  0.58780  0.73620  1.0000
  O   O97       1.0  0.12960  0.04730  0.39020  1.0000
  O   O98       1.0  0.87040  0.95270  0.60980  1.0000
  O   O99       1.0  0.39440  0.44460  0.16200  1.0000
  O   O100      1.0  0.60560  0.55540  0.83800  1.0000
  O   O101      1.0  0.10260  0.30560  0.40640  1.0000
  O   O102      1.0  0.89740  0.69440  0.59360  1.0000
  O   O103      1.0  0.37090  0.45330  0.38600  1.0000
  O   O104      1.0  0.62910  0.54670  0.61400  1.0000
  O   O105      1.0  0.41590  0.94050  0.26540  1.0000
  O   O106      1.0  0.58410  0.05950  0.73460  1.0000
  O   O107      1.0  0.99830  0.34460  0.28940  1.0000
  O   O108      1.0  0.00170  0.65540  0.71060  1.0000
  O   O109      1.0  0.50480  0.30040  0.36180  1.0000
  O   O110      1.0  0.49520  0.69960  0.63820  1.0000
  O   O111      1.0  0.08500  0.55960  0.26300  1.0000
  O   O112      1.0  0.91500  0.44040  0.73700  1.0000
  O   O113      1.0  0.23020  0.11240  0.09570  1.0000
  O   O114      1.0  0.76980  0.88760  0.90430  1.0000
  O   O115      1.0  0.03850  0.18380  0.07690  1.0000
  O   O116      1.0  0.96150  0.81620  0.92310  1.0000
  O   O117      1.0  0.06730  0.42200  0.19730  1.0000
  O   O118      1.0  0.93270  0.57800  0.80270  1.0000
  O   O119      1.0  0.27380  0.38540  0.09200  1.0000
  O   O120      1.0  0.72620  0.61460  0.90800  1.0000
  O   O121      1.0  0.03730  0.22400  0.20020  1.0000
  O   O122      1.0  0.96270  0.77600  0.79980  1.0000
  O   O123      1.0  0.20080  0.88820  0.20450  1.0000
  O   O124      1.0  0.79920  0.11180  0.79550  1.0000
  Fe  Fe1       1.0  0.50000  0.00000  0.00000  1.0000
  Fe  Fe2       1.0  0.00000  0.50000  0.00000  1.0000
  C   C1        1.0  0.60700  0.79080  0.03180  1.0000
  C   C2        1.0  0.39300  0.20920  0.96820  1.0000
  H   H1        1.0  0.61960  0.77540  0.99160  1.0000
  H   H2        1.0  0.38040  0.22460  0.00840  1.0000
  C   C3        1.0  0.55500  0.86610  0.11040  1.0000
  C   C4        1.0  0.44500  0.13390  0.88960  1.0000
  H   H3        1.0  0.52590  0.91260  0.13670  1.0000
  H   H4        1.0  0.47410  0.08740  0.86330  1.0000
  C   C5        1.0  0.62310  0.74180  0.18750  1.0000
  C   C6        1.0  0.37690  0.25820  0.81250  1.0000
  H   H5        1.0  0.59530  0.68990  0.19340  1.0000
  H   H6        1.0  0.40470  0.31010  0.80660  1.0000
  H   H7        1.0  0.59700  0.78820  0.21740  1.0000
  H   H8        1.0  0.40300  0.21180  0.78260  1.0000
  C   C7        1.0  0.72600  0.71010  0.19520  1.0000
  C   C8        1.0  0.27400  0.28990  0.80480  1.0000
  H   H9        1.0  0.75140  0.66690  0.16340  1.0000
  H   H10       1.0  0.24860  0.33310  0.83660  1.0000
  H   H11       1.0  0.73860  0.67690  0.23310  1.0000
  H   H12       1.0  0.26140  0.32310  0.76690  1.0000
  C   C9        1.0  0.77710  0.78820  0.19430  1.0000
  C   C10       1.0  0.22290  0.21180  0.80570  1.0000
  H   H13       1.0  0.75310  0.83030  0.16140  1.0000
  H   H14       1.0  0.24690  0.16970  0.83860  1.0000
  H   H15       1.0  0.76300  0.82280  0.23130  1.0000
  H   H16       1.0  0.23700  0.17720  0.76870  1.0000
  C   C11       1.0  0.87850  0.75640  0.18760  1.0000
  C   C12       1.0  0.12150  0.24360  0.81240  1.0000
  H   H17       1.0  0.90320  0.70920  0.21760  1.0000
  H   H18       1.0  0.09680  0.29080  0.78240  1.0000
  H   H19       1.0  0.90680  0.80760  0.19330  1.0000
  H   H20       1.0  0.09320  0.19240  0.80670  1.0000
  C   C13       1.0  0.89700  0.71030  0.03180  1.0000
  C   C14       1.0  0.10300  0.28970  0.96820  1.0000
  H   H21       1.0  0.88570  0.72600  0.99160  1.0000
  H   H22       1.0  0.11430  0.27400  0.00840  1.0000
  C   C15       1.0  0.94590  0.63510  0.10900  1.0000
  C   C16       1.0  0.05410  0.36490  0.89100  1.0000
  H   H23       1.0  0.97520  0.58840  0.13530  1.0000
  H   H24       1.0  0.02480  0.41160  0.86470  1.0000
  C   C17       1.0  0.29960  0.98600  0.97450  1.0000
  C   C18       1.0  0.70040  0.01400  0.02550  1.0000
  H   H25       1.0  0.27990  0.01990  0.00890  1.0000
  H   H26       1.0  0.72010  0.98010  0.99110  1.0000
  C   C19       1.0  0.38790  0.90660  0.91220  1.0000
  C   C20       1.0  0.61210  0.09340  0.08780  1.0000
  H   H27       1.0  0.44090  0.87660  0.89090  1.0000
  H   H28       1.0  0.55910  0.12340  0.10910  1.0000
  C   C21       1.0  0.26600  0.88160  0.83840  1.0000
  C   C22       1.0  0.73400  0.11840  0.16160  1.0000
  H   H29       1.0  0.21630  0.85200  0.84670  1.0000
  H   H30       1.0  0.78370  0.14800  0.15330  1.0000
  H   H31       1.0  0.31670  0.83660  0.81910  1.0000
  H   H32       1.0  0.68330  0.16340  0.18090  1.0000
  C   C23       1.0  0.23230  0.96170  0.79670  1.0000
  C   C24       1.0  0.76770  0.03830  0.20330  1.0000
  H   H33       1.0  0.17870  0.00330  0.81520  1.0000
  H   H34       1.0  0.82130  0.99670  0.18480  1.0000
  H   H35       1.0  0.28060  0.99490  0.79270  1.0000
  H   H36       1.0  0.71940  0.00510  0.20730  1.0000
  C   C25       1.0  0.20600  0.93970  0.73590  1.0000
  C   C26       1.0  0.79400  0.06030  0.26410  1.0000
  H   H37       1.0  0.25900  0.89710  0.71750  1.0000
  H   H38       1.0  0.74100  0.10290  0.28250  1.0000
  H   H39       1.0  0.15660  0.90780  0.73970  1.0000
  H   H40       1.0  0.84340  0.09220  0.26030  1.0000
  C   C27       1.0  0.17450  0.01960  0.69530  1.0000
  C   C28       1.0  0.82550  0.98040  0.30470  1.0000
  H   H41       1.0  0.11880  0.06010  0.71230  1.0000
  H   H42       1.0  0.88120  0.93990  0.28770  1.0000
  H   H43       1.0  0.22210  0.05400  0.69380  1.0000
  H   H44       1.0  0.77790  0.94600  0.30620  1.0000
  C   C29       1.0  0.20280  0.51400  0.96970  1.0000
  C   C30       1.0  0.79720  0.48600  0.03030  1.0000
  H   H45       1.0  0.22420  0.47870  0.00380  1.0000
  H   H46       1.0  0.77580  0.52130  0.99620  1.0000
  C   C31       1.0  0.11320  0.59550  0.90910  1.0000
  C   C32       1.0  0.88680  0.40450  0.09090  1.0000
  H   H47       1.0  0.06070  0.62930  0.88930  1.0000
  H   H48       1.0  0.93930  0.37070  0.11070  1.0000
  C   C33       1.0  0.23300  0.61400  0.83340  1.0000
  C   C34       1.0  0.76700  0.38600  0.16660  1.0000
  H   H49       1.0  0.28290  0.64300  0.84130  1.0000
  H   H50       1.0  0.71710  0.35700  0.15870  1.0000
  H   H51       1.0  0.18330  0.65960  0.81410  1.0000
  H   H52       1.0  0.81670  0.34040  0.18590  1.0000
  C   C35       1.0  0.26740  0.53710  0.79070  1.0000
  C   C36       1.0  0.73260  0.46290  0.20930  1.0000
  H   H53       1.0  0.22090  0.50170  0.78840  1.0000
  H   H54       1.0  0.77910  0.49830  0.21160  1.0000
  H   H55       1.0  0.32280  0.49660  0.80780  1.0000
  H   H56       1.0  0.67720  0.50340  0.19220  1.0000
  C   C37       1.0  0.29090  0.56100  0.72730  1.0000
  C   C38       1.0  0.70910  0.43900  0.27270  1.0000
  H   H57       1.0  0.23450  0.59500  0.70780  1.0000
  H   H58       1.0  0.76550  0.40500  0.29220  1.0000
  H   H59       1.0  0.33350  0.60030  0.72860  1.0000
  H   H60       1.0  0.66650  0.39970  0.27140  1.0000
  C   C39       1.0  0.33200  0.48100  0.69220  1.0000
  C   C40       1.0  0.66800  0.51900  0.30780  1.0000
  H   H61       1.0  0.29010  0.44030  0.69330  1.0000
  H   H62       1.0  0.70990  0.55970  0.30670  1.0000
  H   H63       1.0  0.38910  0.44860  0.71150  1.0000
  H   H64       1.0  0.61090  0.55140  0.28850  1.0000
  N   N1        1.0  0.55640  0.87450  0.05120  1.0000
  N   N2        1.0  0.44360  0.12550  0.94880  1.0000
  N   N3        1.0  0.63700  0.73370  0.07750  1.0000
  N   N4        1.0  0.36300  0.26630  0.92250  1.0000
  N   N5        1.0  0.60150  0.78120  0.12670  1.0000
  N   N6        1.0  0.39850  0.21880  0.87330  1.0000
  N   N7        1.0  0.86800  0.76840  0.07590  1.0000
  N   N8        1.0  0.13200  0.23160  0.92410  1.0000
  N   N9        1.0  0.90050  0.71780  0.12650  1.0000
  N   N10       1.0  0.09950  0.28220  0.87350  1.0000
  N   N11       1.0  0.94600  0.62500  0.05050  1.0000
  N   N12       1.0  0.05400  0.37500  0.94950  1.0000
  N   N13       1.0  0.38850  0.94940  0.96140  1.0000
  N   N14       1.0  0.61150  0.05060  0.03860  1.0000
  N   N15       1.0  0.24010  0.96800  0.93290  1.0000
  N   N16       1.0  0.75990  0.03200  0.06710  1.0000
  N   N17       1.0  0.29930  0.91080  0.89500  1.0000
  N   N18       1.0  0.70070  0.08920  0.10500  1.0000
  N   N19       1.0  0.15610  0.99850  0.63870  1.0000
  N   N20       1.0  0.84390  0.00150  0.36130  1.0000
  N   N21       1.0  0.21920  0.00800  0.59200  1.0000
  N   N22       1.0  0.78080  0.99200  0.40800  1.0000
  C   C41       1.0  0.17900  0.99200  0.53650  1.0000
  C   C42       1.0  0.82100  0.00800  0.46350  1.0000
  H   H65       1.0  0.20600  0.99380  0.49870  1.0000
  H   H66       1.0  0.79400  0.00620  0.50130  1.0000
  N   N23       1.0  0.09180  0.97320  0.54890  1.0000
  N   N24       1.0  0.90820  0.02680  0.45110  1.0000
  C   C43       1.0  0.07740  0.97700  0.61210  1.0000
  C   C44       1.0  0.92260  0.02300  0.38790  1.0000
  H   H67       1.0  0.02550  0.96760  0.63250  1.0000
  H   H68       1.0  0.97450  0.03240  0.36750  1.0000
  N   N25       1.0  0.25840  0.53400  0.92780  1.0000
  N   N26       1.0  0.74160  0.46600  0.07220  1.0000
  N   N27       1.0  0.11110  0.55020  0.95800  1.0000
  N   N28       1.0  0.88890  0.44980  0.04200  1.0000
  N   N29       1.0  0.19760  0.58830  0.89090  1.0000
  N   N30       1.0  0.80240  0.41170  0.10910  1.0000
  N   N31       1.0  0.29360  0.50100  0.58610  1.0000
  N   N32       1.0  0.70640  0.49900  0.41390  1.0000
  N   N33       1.0  0.35280  0.49640  0.63010  1.0000
  N   N34       1.0  0.64720  0.50360  0.36990  1.0000
  C   C45       1.0  0.43080  0.50900  0.60720  1.0000
  C   C46       1.0  0.56920  0.49100  0.39280  1.0000
  H   H69       1.0  0.48440  0.50870  0.62840  1.0000
  H   H70       1.0  0.51560  0.49130  0.37160  1.0000
  N   N35       1.0  0.41980  0.52100  0.54900  1.0000
  N   N36       1.0  0.58020  0.47900  0.45100  1.0000
  C   C47       1.0  0.33500  0.51600  0.53590  1.0000
  C   C48       1.0  0.66500  0.48400  0.46410  1.0000
  H   H71       1.0  0.30880  0.52220  0.49790  1.0000
  H   H72       1.0  0.69120  0.47780  0.50210  1.0000
