data_image0
_chemical_formula_structural       Cu2O2C2O2C2H4C2H4N2H6O2C2O2C2H4C2H4N2H6V10O28
_chemical_formula_sum              "Cu2 O36 C12 H28 N4 V10"
_cell_length_a       10.4546
_cell_length_b       11.1659
_cell_length_c       12.8258
_cell_angle_alpha    110.214
_cell_angle_beta     95.78
_cell_angle_gamma    116.818

_space_group_name_H-M_alt    "P 1"
_space_group_IT_number       1

loop_
  _space_group_symop_operation_xyz
  'x, y, z'

loop_
  _atom_site_type_symbol
  _atom_site_label
  _atom_site_symmetry_multiplicity
  _atom_site_fract_x
  _atom_site_fract_y
  _atom_site_fract_z
  _atom_site_occupancy
  Cu  Cu1       1.0  0.39400  0.01890  0.46186  1.0000
  Cu  Cu2       1.0  0.60600  0.98110  0.53814  1.0000
  O   O1        1.0  0.55590  0.18200  0.44360  1.0000
  O   O2        1.0  0.44410  0.81800  0.55640  1.0000
  C   C1        1.0  0.69150  0.21900  0.47270  1.0000
  C   C2        1.0  0.30850  0.78100  0.52730  1.0000
  O   O3        1.0  0.74020  0.15330  0.51379  1.0000
  O   O4        1.0  0.25980  0.84670  0.48621  1.0000
  C   C3        1.0  0.80490  0.34850  0.45670  1.0000
  C   C4        1.0  0.19510  0.65150  0.54330  1.0000
  H   H1        1.0  0.83970  0.31020  0.39090  1.0000
  H   H2        1.0  0.16030  0.68980  0.60910  1.0000
  H   H3        1.0  0.89310  0.41400  0.52790  1.0000
  H   H4        1.0  0.10690  0.58600  0.47210  1.0000
  C   C5        1.0  0.74630  0.44080  0.43300  1.0000
  C   C6        1.0  0.25370  0.55920  0.56700  1.0000
  H   H5        1.0  0.70020  0.46920  0.49360  1.0000
  H   H6        1.0  0.29980  0.53080  0.50640  1.0000
  H   H7        1.0  0.83180  0.53390  0.43880  1.0000
  H   H8        1.0  0.16820  0.46610  0.56120  1.0000
  N   N1        1.0  0.63240  0.36020  0.31540  1.0000
  N   N2        1.0  0.36760  0.63980  0.68460  1.0000
  H   H9        1.0  0.67770  0.34630  0.25910  1.0000
  H   H10       1.0  0.32230  0.65370  0.74090  1.0000
  H   H11       1.0  0.59190  0.41540  0.30900  1.0000
  H   H12       1.0  0.40810  0.58460  0.69100  1.0000
  H   H13       1.0  0.55830  0.27000  0.30660  1.0000
  H   H14       1.0  0.44170  0.73000  0.69340  1.0000
  O   O5        1.0  0.43930  0.15170  0.62555  1.0000
  O   O6        1.0  0.56070  0.84830  0.37445  1.0000
  C   C7        1.0  0.54390  0.17920  0.70560  1.0000
  C   C8        1.0  0.45610  0.82080  0.29440  1.0000
  O   O7        1.0  0.62540  0.12220  0.69019  1.0000
  O   O8        1.0  0.37460  0.87780  0.30981  1.0000
  C   C9        1.0  0.57100  0.28330  0.82790  1.0000
  C   C10       1.0  0.42900  0.71670  0.17210  1.0000
  H   H15       1.0  0.47770  0.24110  0.84950  1.0000
  H   H16       1.0  0.52230  0.75890  0.15050  1.0000
  H   H17       1.0  0.59180  0.37990  0.82980  1.0000
  H   H18       1.0  0.40820  0.62010  0.17020  1.0000
  C   C11       1.0  0.70000  0.31260  0.91890  1.0000
  C   C12       1.0  0.30000  0.68740  0.08110  1.0000
  H   H19       1.0  0.79310  0.35000  0.89630  1.0000
  H   H20       1.0  0.20690  0.65000  0.10370  1.0000
  H   H21       1.0  0.71750  0.39050  0.99520  1.0000
  H   H22       1.0  0.28250  0.60950  0.00480  1.0000
  N   N3        1.0  0.66570  0.17410  0.93010  1.0000
  N   N4        1.0  0.33430  0.82590  0.06990  1.0000
  H   H23       1.0  0.57790  0.13750  0.94770  1.0000
  H   H24       1.0  0.42210  0.86250  0.05230  1.0000
  H   H25       1.0  0.74160  0.19510  0.98790  1.0000
  H   H26       1.0  0.25840  0.80490  0.01210  1.0000
  H   H27       1.0  0.65650  0.10490  0.86140  1.0000
  H   H28       1.0  0.34350  0.89510  0.13860  1.0000
  V   V1        1.0  0.20193  0.34229  0.23808  1.0000
  V   V2        1.0  0.79807  0.65771  0.76192  1.0000
  V   V3        1.0  0.17547  0.07654  0.27471  1.0000
  V   V4        1.0  0.82453  0.92346  0.72529  1.0000
  V   V5        1.0  0.01893  0.14371  0.97967  1.0000
  V   V6        1.0  0.98107  0.85629  0.02033  1.0000
  V   V7        1.0  0.88067  0.07061  0.17342  1.0000
  V   V8        1.0  0.11933  0.92939  0.82658  1.0000
  V   V9        1.0  0.30077  0.14068  0.07998  1.0000
  V   V10       1.0  0.69923  0.85932  0.92002  1.0000
  O   O9        1.0  0.28030  0.51950  0.31400  1.0000
  O   O10       1.0  0.71970  0.48050  0.68600  1.0000
  O   O11       1.0  0.11310  0.32300  0.08073  1.0000
  O   O12       1.0  0.88690  0.67700  0.91927  1.0000
  O   O13       1.0  0.35170  0.32780  0.17186  1.0000
  O   O14       1.0  0.64830  0.67220  0.82814  1.0000
  O   O15       1.0  0.24730  0.27610  0.34057  1.0000
  O   O16       1.0  0.75270  0.72390  0.65943  1.0000
  O   O17       1.0  0.00570  0.27180  0.24805  1.0000
  O   O18       1.0  0.99430  0.72820  0.75195  1.0000
  O   O19       1.0  0.32170  0.09350  0.20519  1.0000
  O   O20       1.0  0.67830  0.90650  0.79481  1.0000
  O   O21       1.0  0.22440  0.04720  0.38301  1.0000
  O   O22       1.0  0.77560  0.95280  0.61699  1.0000
  O   O23       1.0  0.97790  0.03810  0.28026  1.0000
  O   O24       1.0  0.02210  0.96190  0.71974  1.0000
  O   O25       1.0  0.72970  0.04560  0.20718  1.0000
  O   O26       1.0  0.27030  0.95440  0.79282  1.0000
  O   O27       1.0  0.94560  0.13840  0.85294  1.0000
  O   O28       1.0  0.05440  0.86160  0.14706  1.0000
  O   O29       1.0  0.19060  0.13650  0.94514  1.0000
  O   O30       1.0  0.80940  0.86350  0.05486  1.0000
  O   O31       1.0  0.45140  0.15980  0.04761  1.0000
  O   O32       1.0  0.54860  0.84020  0.95239  1.0000
  O   O33       1.0  0.08229  0.09040  0.11213  1.0000
  O   O34       1.0  0.91771  0.90960  0.88787  1.0000
  O   O35       1.0  0.83830  0.07990  0.02425  1.0000
  O   O36       1.0  0.16170  0.92010  0.97575  1.0000
