data_image0
_chemical_formula_structural       Cu2N20C4N8C4N4C4H8
_chemical_formula_sum              "Cu2 N32 C12 H8"
_cell_length_a       9.5832
_cell_length_b       9.3291
_cell_length_c       8.85
_cell_angle_alpha    90
_cell_angle_beta     106.395
_cell_angle_gamma    90

_space_group_name_H-M_alt    "P 1"
_space_group_IT_number       1

loop_
  _space_group_symop_operation_xyz
  'x, y, z'

loop_
  _atom_site_type_symbol
  _atom_site_label
  _atom_site_symmetry_multiplicity
  _atom_site_fract_x
  _atom_site_fract_y
  _atom_site_fract_z
  _atom_site_occupancy
  Cu  Cu1       1.0  0.00000  0.00000  0.00000  1.0000
  Cu  Cu2       1.0  0.00000  0.50000  0.50000  1.0000
  N   N1        1.0  0.44390  0.93620  0.17660  1.0000
  N   N2        1.0  0.55610  0.43620  0.32340  1.0000
  N   N3        1.0  0.55610  0.06380  0.82340  1.0000
  N   N4        1.0  0.44390  0.56380  0.67660  1.0000
  N   N5        1.0  0.32430  0.00450  0.17330  1.0000
  N   N6        1.0  0.67570  0.50450  0.32670  1.0000
  N   N7        1.0  0.67570  0.99550  0.82670  1.0000
  N   N8        1.0  0.32430  0.49550  0.67330  1.0000
  N   N9        1.0  0.42200  0.84930  0.04910  1.0000
  N   N10       1.0  0.57800  0.34930  0.45090  1.0000
  N   N11       1.0  0.57800  0.15070  0.95090  1.0000
  N   N12       1.0  0.42200  0.65070  0.54910  1.0000
  N   N13       1.0  0.97450  0.81040  0.89250  1.0000
  N   N14       1.0  0.02550  0.31040  0.60750  1.0000
  N   N15       1.0  0.02550  0.18960  0.10750  1.0000
  N   N16       1.0  0.97450  0.68960  0.39250  1.0000
  N   N17       1.0  0.21910  0.96430  0.04190  1.0000
  N   N18       1.0  0.78090  0.46430  0.45810  1.0000
  N   N19       1.0  0.78090  0.03570  0.95810  1.0000
  N   N20       1.0  0.21910  0.53570  0.54190  1.0000
  C   C1        1.0  0.06020  0.74370  0.81810  1.0000
  C   C2        1.0  0.93980  0.24370  0.68190  1.0000
  C   C3        1.0  0.93980  0.25630  0.18190  1.0000
  C   C4        1.0  0.06020  0.75630  0.31810  1.0000
  N   N21       1.0  0.86830  0.61680  0.78430  1.0000
  N   N22       1.0  0.13170  0.11680  0.71570  1.0000
  N   N23       1.0  0.13170  0.38320  0.21570  1.0000
  N   N24       1.0  0.86830  0.88320  0.28430  1.0000
  N   N25       1.0  0.99650  0.62450  0.74790  1.0000
  N   N26       1.0  0.00350  0.12450  0.75210  1.0000
  N   N27       1.0  0.00350  0.37550  0.25210  1.0000
  N   N28       1.0  0.99650  0.87550  0.24790  1.0000
  C   C5        1.0  0.28360  0.87010  0.96890  1.0000
  C   C6        1.0  0.71640  0.37010  0.53110  1.0000
  C   C7        1.0  0.71640  0.12990  0.03110  1.0000
  C   C8        1.0  0.28360  0.62990  0.46890  1.0000
  N   N29       1.0  0.85570  0.72670  0.87080  1.0000
  N   N30       1.0  0.14430  0.22670  0.62920  1.0000
  N   N31       1.0  0.14430  0.27330  0.12920  1.0000
  N   N32       1.0  0.85570  0.77330  0.37080  1.0000
  C   C9        1.0  0.20820  0.79560  0.81830  1.0000
  C   C10       1.0  0.79180  0.29560  0.68170  1.0000
  C   C11       1.0  0.79180  0.20440  0.18170  1.0000
  C   C12       1.0  0.20820  0.70440  0.31830  1.0000
  H   H1        1.0  0.26770  0.71300  0.80320  1.0000
  H   H2        1.0  0.73230  0.21300  0.69680  1.0000
  H   H3        1.0  0.73230  0.28700  0.19680  1.0000
  H   H4        1.0  0.26770  0.78700  0.30320  1.0000
  H   H5        1.0  0.19890  0.86240  0.72910  1.0000
  H   H6        1.0  0.80110  0.36240  0.77090  1.0000
  H   H7        1.0  0.80110  0.13760  0.27090  1.0000
  H   H8        1.0  0.19890  0.63760  0.22910  1.0000
