data_image0
_chemical_formula_structural       Sr4O24C8H12C8H12C8H12
_chemical_formula_sum              "Sr4 O24 C24 H36"
_cell_length_a       7.483
_cell_length_b       12.034
_cell_length_c       17.23
_cell_angle_alpha    90
_cell_angle_beta     90
_cell_angle_gamma    90

_space_group_name_H-M_alt    "P 1"
_space_group_IT_number       1

loop_
  _space_group_symop_operation_xyz
  'x, y, z'

loop_
  _atom_site_type_symbol
  _atom_site_label
  _atom_site_symmetry_multiplicity
  _atom_site_fract_x
  _atom_site_fract_y
  _atom_site_fract_z
  _atom_site_occupancy
  Sr  Sr1       1.0  0.48613  0.72080  0.53323  1.0000
  Sr  Sr2       1.0  0.01387  0.27920  0.03323  1.0000
  Sr  Sr3       1.0  0.51387  0.22080  0.96677  1.0000
  Sr  Sr4       1.0  0.98613  0.77920  0.46677  1.0000
  O   O1        1.0  0.82310  0.70840  0.58850  1.0000
  O   O2        1.0  0.67690  0.29160  0.08850  1.0000
  O   O3        1.0  0.17690  0.20840  0.91150  1.0000
  O   O4        1.0  0.32310  0.79160  0.41150  1.0000
  O   O5        1.0  0.61900  0.74700  0.67730  1.0000
  O   O6        1.0  0.88100  0.25300  0.17730  1.0000
  O   O7        1.0  0.38100  0.24700  0.82270  1.0000
  O   O8        1.0  0.11900  0.75300  0.32270  1.0000
  O   O9        1.0  0.17670  0.60890  0.50950  1.0000
  O   O10       1.0  0.32330  0.39110  0.00950  1.0000
  O   O11       1.0  0.82330  0.10890  0.99050  1.0000
  O   O12       1.0  0.67670  0.89110  0.49050  1.0000
  O   O13       1.0  0.29570  0.59010  0.62720  1.0000
  O   O14       1.0  0.20430  0.40990  0.12720  1.0000
  O   O15       1.0  0.70430  0.09010  0.87280  1.0000
  O   O16       1.0  0.79570  0.90990  0.37280  1.0000
  O   O17       1.0  0.23340  0.85760  0.57200  1.0000
  O   O18       1.0  0.26660  0.14240  0.07200  1.0000
  O   O19       1.0  0.76660  0.35760  0.92800  1.0000
  O   O20       1.0  0.73340  0.64240  0.42800  1.0000
  O   O21       1.0  0.08740  0.98980  0.50700  1.0000
  O   O22       1.0  0.41260  0.01020  0.00700  1.0000
  O   O23       1.0  0.91260  0.48980  0.99300  1.0000
  O   O24       1.0  0.58740  0.51020  0.49300  1.0000
  C   C1        1.0  0.77700  0.72930  0.65850  1.0000
  C   C2        1.0  0.72300  0.27070  0.15850  1.0000
  C   C3        1.0  0.22300  0.22930  0.84150  1.0000
  C   C4        1.0  0.27700  0.77070  0.34150  1.0000
  C   C5        1.0  0.92240  0.72680  0.71940  1.0000
  C   C6        1.0  0.57760  0.27320  0.21940  1.0000
  C   C7        1.0  0.07760  0.22680  0.78060  1.0000
  C   C8        1.0  0.42240  0.77320  0.28060  1.0000
  H   H1        1.0  0.88250  0.76760  0.76550  1.0000
  H   H2        1.0  0.61750  0.23240  0.26550  1.0000
  H   H3        1.0  0.11750  0.26760  0.73450  1.0000
  H   H4        1.0  0.38250  0.73240  0.23450  1.0000
  H   H5        1.0  0.03070  0.76170  0.69860  1.0000
  H   H6        1.0  0.46930  0.23830  0.19860  1.0000
  H   H7        1.0  0.96930  0.26170  0.80140  1.0000
  H   H8        1.0  0.53070  0.73830  0.30140  1.0000
  H   H9        1.0  0.94820  0.64960  0.73350  1.0000
  H   H10       1.0  0.55180  0.35040  0.23350  1.0000
  H   H11       1.0  0.05180  0.14960  0.76650  1.0000
  H   H12       1.0  0.44820  0.85040  0.26650  1.0000
  C   C9        1.0  0.18590  0.56360  0.57580  1.0000
  C   C10       1.0  0.31410  0.43640  0.07580  1.0000
  C   C11       1.0  0.81410  0.06360  0.92420  1.0000
  C   C12       1.0  0.68590  0.93640  0.42420  1.0000
  C   C13       1.0  0.05720  0.46880  0.59190  1.0000
  C   C14       1.0  0.44280  0.53120  0.09190  1.0000
  C   C15       1.0  0.94280  0.96880  0.90810  1.0000
  C   C16       1.0  0.55720  0.03120  0.40810  1.0000
  H   H13       1.0  0.93630  0.49070  0.57620  1.0000
  H   H14       1.0  0.56370  0.50930  0.07620  1.0000
  H   H15       1.0  0.06370  0.99070  0.92380  1.0000
  H   H16       1.0  0.43630  0.00930  0.42380  1.0000
  H   H17       1.0  0.05820  0.45150  0.64740  1.0000
  H   H18       1.0  0.44180  0.54850  0.14740  1.0000
  H   H19       1.0  0.94180  0.95150  0.85260  1.0000
  H   H20       1.0  0.55820  0.04850  0.35260  1.0000
  H   H21       1.0  0.09400  0.40310  0.56230  1.0000
  H   H22       1.0  0.40600  0.59690  0.06230  1.0000
  H   H23       1.0  0.90600  0.90310  0.93770  1.0000
  H   H24       1.0  0.59400  0.09690  0.43770  1.0000
  C   C17       1.0  0.20490  0.95840  0.55520  1.0000
  C   C18       1.0  0.29510  0.04160  0.05520  1.0000
  C   C19       1.0  0.79510  0.45840  0.94480  1.0000
  C   C20       1.0  0.70490  0.54160  0.44480  1.0000
  C   C21       1.0  0.31910  0.04590  0.59330  1.0000
  C   C22       1.0  0.18090  0.95410  0.09330  1.0000
  C   C23       1.0  0.68090  0.54590  0.90670  1.0000
  C   C24       1.0  0.81910  0.45410  0.40670  1.0000
  H   H25       1.0  0.44270  0.01930  0.59660  1.0000
  H   H26       1.0  0.05730  0.98070  0.09660  1.0000
  H   H27       1.0  0.55730  0.51930  0.90340  1.0000
  H   H28       1.0  0.94270  0.48070  0.40340  1.0000
  H   H29       1.0  0.27380  0.06090  0.64560  1.0000
  H   H30       1.0  0.22620  0.93910  0.14560  1.0000
  H   H31       1.0  0.72620  0.56090  0.85440  1.0000
  H   H32       1.0  0.77380  0.43910  0.35440  1.0000
  H   H33       1.0  0.31520  0.11420  0.56250  1.0000
  H   H34       1.0  0.18480  0.88580  0.06250  1.0000
  H   H35       1.0  0.68480  0.61420  0.93750  1.0000
  H   H36       1.0  0.81520  0.38580  0.43750  1.0000
