data_image0
_chemical_formula_structural       C12H4C8H4C8H4C16H4C4H4C8H4C4H4C16H4C8H4C8H4C16H4C4H4C8H4C4H4C16H4C4H4C8H4N4H8N4O68Zn16
_chemical_formula_sum              "C152 H76 N8 O68 Zn16"
_cell_length_a       10.298
_cell_length_b       31.469
_cell_length_c       32.722
_cell_angle_alpha    90
_cell_angle_beta     106.72
_cell_angle_gamma    90

_space_group_name_H-M_alt    "P 1"
_space_group_IT_number       1

loop_
  _space_group_symop_operation_xyz
  'x, y, z'

loop_
  _atom_site_type_symbol
  _atom_site_label
  _atom_site_symmetry_multiplicity
  _atom_site_fract_x
  _atom_site_fract_y
  _atom_site_fract_z
  _atom_site_occupancy
  C   C1        1.0  0.00500  0.60473  0.28536  1.0000
  C   C2        1.0  0.99500  0.10473  0.21464  1.0000
  C   C3        1.0  0.99500  0.39527  0.71464  1.0000
  C   C4        1.0  0.00500  0.89527  0.78536  1.0000
  C   C5        1.0  0.87370  0.58141  0.27724  1.0000
  C   C6        1.0  0.12630  0.08141  0.22276  1.0000
  C   C7        1.0  0.12630  0.41859  0.72276  1.0000
  C   C8        1.0  0.87370  0.91859  0.77724  1.0000
  C   C9        1.0  0.76190  0.60414  0.27819  1.0000
  C   C10       1.0  0.23810  0.10414  0.22181  1.0000
  C   C11       1.0  0.23810  0.39586  0.72181  1.0000
  C   C12       1.0  0.76190  0.89586  0.77819  1.0000
  H   H1        1.0  0.76670  0.63360  0.28100  1.0000
  H   H2        1.0  0.23330  0.13360  0.21900  1.0000
  H   H3        1.0  0.23330  0.36640  0.71900  1.0000
  H   H4        1.0  0.76670  0.86640  0.78100  1.0000
  C   C13       1.0  0.63900  0.58278  0.27490  1.0000
  C   C14       1.0  0.36100  0.08278  0.22510  1.0000
  C   C15       1.0  0.36100  0.41722  0.72510  1.0000
  C   C16       1.0  0.63900  0.91722  0.77490  1.0000
  C   C17       1.0  0.62810  0.54005  0.26669  1.0000
  C   C18       1.0  0.37190  0.04005  0.23331  1.0000
  C   C19       1.0  0.37190  0.45995  0.73331  1.0000
  C   C20       1.0  0.62810  0.95995  0.76669  1.0000
  H   H5        1.0  0.54600  0.52620  0.26340  1.0000
  H   H6        1.0  0.45400  0.02620  0.23660  1.0000
  H   H7        1.0  0.45400  0.47380  0.73660  1.0000
  H   H8        1.0  0.54600  0.97380  0.76340  1.0000
  C   C21       1.0  0.74200  0.51735  0.26324  1.0000
  C   C22       1.0  0.25800  0.01735  0.23676  1.0000
  C   C23       1.0  0.25800  0.48265  0.73676  1.0000
  C   C24       1.0  0.74200  0.98265  0.76324  1.0000
  C   C25       1.0  0.86570  0.53846  0.26890  1.0000
  C   C26       1.0  0.13430  0.03846  0.23110  1.0000
  C   C27       1.0  0.13430  0.46154  0.73110  1.0000
  C   C28       1.0  0.86570  0.96154  0.76890  1.0000
  H   H9        1.0  0.94180  0.52360  0.26700  1.0000
  H   H10       1.0  0.05820  0.02360  0.23300  1.0000
  H   H11       1.0  0.05820  0.47640  0.73300  1.0000
  H   H12       1.0  0.94180  0.97640  0.76700  1.0000
  C   C29       1.0  0.52920  0.60624  0.28259  1.0000
  C   C30       1.0  0.47080  0.10624  0.21741  1.0000
  C   C31       1.0  0.47080  0.39376  0.71741  1.0000
  C   C32       1.0  0.52920  0.89376  0.78259  1.0000
  C   C33       1.0  0.63310  0.44967  0.24674  1.0000
  C   C34       1.0  0.36690  0.94967  0.25326  1.0000
  C   C35       1.0  0.36690  0.55033  0.75326  1.0000
  C   C36       1.0  0.63310  0.05033  0.74674  1.0000
  C   C37       1.0  0.65760  0.40425  0.23574  1.0000
  C   C38       1.0  0.34240  0.90425  0.26426  1.0000
  C   C39       1.0  0.34240  0.59575  0.76426  1.0000
  C   C40       1.0  0.65760  0.09575  0.73574  1.0000
  C   C41       1.0  0.54760  0.37732  0.23680  1.0000
  C   C42       1.0  0.45240  0.87732  0.26320  1.0000
  C   C43       1.0  0.45240  0.62268  0.76320  1.0000
  C   C44       1.0  0.54760  0.12268  0.73680  1.0000
  H   H13       1.0  0.47300  0.38780  0.24420  1.0000
  H   H14       1.0  0.52700  0.88780  0.25580  1.0000
  H   H15       1.0  0.52700  0.61220  0.75580  1.0000
  H   H16       1.0  0.47300  0.11220  0.74420  1.0000
  C   C45       1.0  0.55560  0.33481  0.22646  1.0000
  C   C46       1.0  0.44440  0.83481  0.27354  1.0000
  C   C47       1.0  0.44440  0.66519  0.77354  1.0000
  C   C48       1.0  0.55560  0.16519  0.72646  1.0000
  H   H17       1.0  0.48510  0.31640  0.22640  1.0000
  H   H18       1.0  0.51490  0.81640  0.27360  1.0000
  H   H19       1.0  0.51490  0.68360  0.77360  1.0000
  H   H20       1.0  0.48510  0.18360  0.72640  1.0000
  C   C49       1.0  0.67030  0.31976  0.21609  1.0000
  C   C50       1.0  0.32970  0.81976  0.28391  1.0000
  C   C51       1.0  0.32970  0.68024  0.78391  1.0000
  C   C52       1.0  0.67030  0.18024  0.71609  1.0000
  C   C53       1.0  0.77580  0.34457  0.21409  1.0000
  C   C54       1.0  0.22420  0.84457  0.28591  1.0000
  C   C55       1.0  0.22420  0.65543  0.78591  1.0000
  C   C56       1.0  0.77580  0.15543  0.71409  1.0000
  H   H21       1.0  0.85050  0.33410  0.20670  1.0000
  H   H22       1.0  0.14950  0.83410  0.29330  1.0000
  H   H23       1.0  0.14950  0.66590  0.79330  1.0000
  H   H24       1.0  0.85050  0.16590  0.70670  1.0000
  C   C57       1.0  0.76290  0.38633  0.22397  1.0000
  C   C58       1.0  0.23710  0.88633  0.27603  1.0000
  C   C59       1.0  0.23710  0.61367  0.77603  1.0000
  C   C60       1.0  0.76290  0.11367  0.72397  1.0000
  H   H25       1.0  0.83290  0.40440  0.22260  1.0000
  H   H26       1.0  0.16710  0.90440  0.27740  1.0000
  H   H27       1.0  0.16710  0.59560  0.77740  1.0000
  H   H28       1.0  0.83290  0.09560  0.72260  1.0000
  C   C61       1.0  0.67890  0.27574  0.20565  1.0000
  C   C62       1.0  0.32110  0.77574  0.29435  1.0000
  C   C63       1.0  0.32110  0.72426  0.79435  1.0000
  C   C64       1.0  0.67890  0.22426  0.70565  1.0000
  C   C65       1.0  0.90230  0.21085  0.11297  1.0000
  C   C66       1.0  0.09770  0.71085  0.38703  1.0000
  C   C67       1.0  0.09770  0.78915  0.88703  1.0000
  C   C68       1.0  0.90230  0.28915  0.61297  1.0000
  C   C69       1.0  0.00420  0.21855  0.08888  1.0000
  C   C70       1.0  0.99580  0.71855  0.41112  1.0000
  C   C71       1.0  0.99580  0.78145  0.91112  1.0000
  C   C72       1.0  0.00420  0.28145  0.58888  1.0000
  C   C73       1.0  0.96300  0.22696  0.04503  1.0000
  C   C74       1.0  0.03700  0.72696  0.45497  1.0000
  C   C75       1.0  0.03700  0.77304  0.95497  1.0000
  C   C76       1.0  0.96300  0.27304  0.54503  1.0000
  H   H29       1.0  0.87120  0.22910  0.03050  1.0000
  H   H30       1.0  0.12880  0.72910  0.46950  1.0000
  H   H31       1.0  0.12880  0.77090  0.96950  1.0000
  H   H32       1.0  0.87120  0.27090  0.53050  1.0000
  C   C77       1.0  0.05940  0.23205  0.02333  1.0000
  C   C78       1.0  0.94060  0.73205  0.47667  1.0000
  C   C79       1.0  0.94060  0.76795  0.97667  1.0000
  C   C80       1.0  0.05940  0.26795  0.52333  1.0000
  C   C81       1.0  0.19660  0.22782  0.04471  1.0000
  C   C82       1.0  0.80340  0.72782  0.45529  1.0000
  C   C83       1.0  0.80340  0.77218  0.95529  1.0000
  C   C84       1.0  0.19660  0.27218  0.54471  1.0000
  H   H33       1.0  0.26100  0.23080  0.03000  1.0000
  H   H34       1.0  0.73900  0.73080  0.47000  1.0000
  H   H35       1.0  0.73900  0.76920  0.97000  1.0000
  H   H36       1.0  0.26100  0.26920  0.53000  1.0000
  C   C85       1.0  0.23680  0.21923  0.08801  1.0000
  C   C86       1.0  0.76320  0.71923  0.41199  1.0000
  C   C87       1.0  0.76320  0.78077  0.91199  1.0000
  C   C88       1.0  0.23680  0.28077  0.58801  1.0000
  C   C89       1.0  0.14140  0.21444  0.11000  1.0000
  C   C90       1.0  0.85860  0.71444  0.39000  1.0000
  C   C91       1.0  0.85860  0.78556  0.89000  1.0000
  C   C92       1.0  0.14140  0.28556  0.61000  1.0000
  H   H37       1.0  0.16920  0.20840  0.13910  1.0000
  H   H38       1.0  0.83080  0.70840  0.36090  1.0000
  H   H39       1.0  0.83080  0.79160  0.86090  1.0000
  H   H40       1.0  0.16920  0.29160  0.63910  1.0000
  C   C93       1.0  0.38040  0.20713  0.11115  1.0000
  C   C94       1.0  0.61960  0.70713  0.38885  1.0000
  C   C95       1.0  0.61960  0.79287  0.88885  1.0000
  C   C96       1.0  0.38040  0.29287  0.61115  1.0000
  C   C97       1.0  0.91700  0.26868  0.95565  1.0000
  C   C98       1.0  0.08300  0.76868  0.54435  1.0000
  C   C99       1.0  0.08300  0.73132  0.04435  1.0000
  C   C100      1.0  0.91700  0.23132  0.45565  1.0000
  C   C101      1.0  0.90300  0.27724  0.90942  1.0000
  C   C102      1.0  0.09700  0.77724  0.59058  1.0000
  C   C103      1.0  0.09700  0.72276  0.09058  1.0000
  C   C104      1.0  0.90300  0.22276  0.40942  1.0000
  C   C105      1.0  0.77910  0.29192  0.88372  1.0000
  C   C106      1.0  0.22090  0.79192  0.61628  1.0000
  C   C107      1.0  0.22090  0.70808  0.11628  1.0000
  C   C108      1.0  0.77910  0.20808  0.38372  1.0000
  H   H41       1.0  0.70920  0.29760  0.89570  1.0000
  H   H42       1.0  0.29080  0.79760  0.60430  1.0000
  H   H43       1.0  0.29080  0.70240  0.10430  1.0000
  H   H44       1.0  0.70920  0.20240  0.39570  1.0000
  C   C109      1.0  0.75890  0.29823  0.84035  1.0000
  C   C110      1.0  0.24110  0.79823  0.65965  1.0000
  C   C111      1.0  0.24110  0.70177  0.15965  1.0000
  C   C112      1.0  0.75890  0.20177  0.34035  1.0000
  H   H45       1.0  0.67620  0.30860  0.82350  1.0000
  H   H46       1.0  0.32380  0.80860  0.67650  1.0000
  H   H47       1.0  0.32380  0.69140  0.17650  1.0000
  H   H48       1.0  0.67620  0.19140  0.32350  1.0000
  C   C113      1.0  0.86210  0.28911  0.82200  1.0000
  C   C114      1.0  0.13790  0.78911  0.67800  1.0000
  C   C115      1.0  0.13790  0.71089  0.17800  1.0000
  C   C116      1.0  0.86210  0.21089  0.32200  1.0000
  C   C117      1.0  0.98660  0.27402  0.84713  1.0000
  C   C118      1.0  0.01340  0.77402  0.65287  1.0000
  C   C119      1.0  0.01340  0.72598  0.15287  1.0000
  C   C120      1.0  0.98660  0.22598  0.34713  1.0000
  H   H49       1.0  0.05570  0.26800  0.83490  1.0000
  H   H50       1.0  0.94430  0.76800  0.66510  1.0000
  H   H51       1.0  0.94430  0.73200  0.16510  1.0000
  H   H52       1.0  0.05570  0.23200  0.33490  1.0000
  C   C121      1.0  0.00680  0.26804  0.89086  1.0000
  C   C122      1.0  0.99320  0.76804  0.60914  1.0000
  C   C123      1.0  0.99320  0.73196  0.10914  1.0000
  C   C124      1.0  0.00680  0.23196  0.39086  1.0000
  H   H53       1.0  0.08970  0.25790  0.90780  1.0000
  H   H54       1.0  0.91030  0.75790  0.59220  1.0000
  H   H55       1.0  0.91030  0.74210  0.09220  1.0000
  H   H56       1.0  0.08970  0.24210  0.40780  1.0000
  C   C125      1.0  0.83020  0.29910  0.78198  1.0000
  C   C126      1.0  0.16980  0.79910  0.71802  1.0000
  C   C127      1.0  0.16980  0.70090  0.21802  1.0000
  C   C128      1.0  0.83020  0.20090  0.28198  1.0000
  C   C129      1.0  0.61480  0.08730  0.09113  1.0000
  C   C130      1.0  0.38520  0.58730  0.40887  1.0000
  C   C131      1.0  0.38520  0.91270  0.90887  1.0000
  C   C132      1.0  0.61480  0.41270  0.59113  1.0000
  C   C133      1.0  0.57150  0.05474  0.05594  1.0000
  C   C134      1.0  0.42850  0.55474  0.44406  1.0000
  C   C135      1.0  0.42850  0.94526  0.94406  1.0000
  C   C136      1.0  0.57150  0.44526  0.55594  1.0000
  C   C137      1.0  0.49700  0.07648  0.01910  1.0000
  C   C138      1.0  0.50300  0.57648  0.48090  1.0000
  C   C139      1.0  0.50300  0.92352  0.98090  1.0000
  C   C140      1.0  0.49700  0.42352  0.51910  1.0000
  H   H57       1.0  0.48640  0.10580  0.01950  1.0000
  H   H58       1.0  0.51360  0.60580  0.48050  1.0000
  H   H59       1.0  0.51360  0.89420  0.98050  1.0000
  H   H60       1.0  0.48640  0.39420  0.51950  1.0000
  C   C141      1.0  0.43890  0.05318  0.98180  1.0000
  C   C142      1.0  0.56110  0.55318  0.51820  1.0000
  C   C143      1.0  0.56110  0.94682  0.01820  1.0000
  C   C144      1.0  0.43890  0.44682  0.48180  1.0000
  H   H61       1.0  0.38820  0.06710  0.95730  1.0000
  H   H62       1.0  0.61180  0.56710  0.54270  1.0000
  H   H63       1.0  0.61180  0.93290  0.04270  1.0000
  H   H64       1.0  0.38820  0.43290  0.45730  1.0000
  C   C145      1.0  0.45660  0.00975  0.98121  1.0000
  C   C146      1.0  0.54340  0.50975  0.51879  1.0000
  C   C147      1.0  0.54340  0.99025  0.01879  1.0000
  C   C148      1.0  0.45660  0.49025  0.48121  1.0000
  C   C149      1.0  0.58980  0.01124  0.05499  1.0000
  C   C150      1.0  0.41020  0.51124  0.44501  1.0000
  C   C151      1.0  0.41020  0.98876  0.94501  1.0000
  C   C152      1.0  0.58980  0.48876  0.55499  1.0000
  H   H65       1.0  0.63470  0.99680  0.07980  1.0000
  H   H66       1.0  0.36530  0.49680  0.42020  1.0000
  H   H67       1.0  0.36530  0.00320  0.92020  1.0000
  H   H68       1.0  0.63470  0.50320  0.57980  1.0000
  N   N1        1.0  0.72850  0.47525  0.25290  1.0000
  N   N2        1.0  0.27150  0.97525  0.24710  1.0000
  N   N3        1.0  0.27150  0.52475  0.74710  1.0000
  N   N4        1.0  0.72850  0.02475  0.75290  1.0000
  H   H69       1.0  0.80160  0.46410  0.25000  1.0000
  H   H70       1.0  0.19840  0.96410  0.25000  1.0000
  H   H71       1.0  0.19840  0.53590  0.75000  1.0000
  H   H72       1.0  0.80160  0.03590  0.75000  1.0000
  H   H73       1.0  0.07020  0.23280  0.96670  1.0000
  H   H74       1.0  0.92980  0.73280  0.53330  1.0000
  H   H75       1.0  0.92980  0.76720  0.03330  1.0000
  H   H76       1.0  0.07020  0.26720  0.46670  1.0000
  N   N5        1.0  0.01959  0.24366  0.98086  1.0000
  N   N6        1.0  0.98041  0.74366  0.51914  1.0000
  N   N7        1.0  0.98041  0.75634  0.01914  1.0000
  N   N8        1.0  0.01959  0.25634  0.48086  1.0000
  O   O1        1.0  0.69548  0.16684  0.17038  1.0000
  O   O2        1.0  0.30452  0.66684  0.32962  1.0000
  O   O3        1.0  0.30452  0.83316  0.82962  1.0000
  O   O4        1.0  0.69548  0.33316  0.67038  1.0000
  O   O5        1.0  0.00598  0.64285  0.29155  1.0000
  O   O6        1.0  0.99402  0.14285  0.20845  1.0000
  O   O7        1.0  0.99402  0.35715  0.70845  1.0000
  O   O8        1.0  0.00598  0.85715  0.79155  1.0000
  O   O9        1.0  0.11115  0.58202  0.29096  1.0000
  O   O10       1.0  0.88885  0.08202  0.20904  1.0000
  O   O11       1.0  0.88885  0.41798  0.70904  1.0000
  O   O12       1.0  0.11115  0.91798  0.79096  1.0000
  O   O13       1.0  0.53171  0.64519  0.28067  1.0000
  O   O14       1.0  0.46829  0.14519  0.21933  1.0000
  O   O15       1.0  0.46829  0.35481  0.71933  1.0000
  O   O16       1.0  0.53171  0.85481  0.78067  1.0000
  O   O17       1.0  0.43368  0.58563  0.28892  1.0000
  O   O18       1.0  0.56632  0.08563  0.21108  1.0000
  O   O19       1.0  0.56632  0.41437  0.71108  1.0000
  O   O20       1.0  0.43368  0.91437  0.78892  1.0000
  O   O21       1.0  0.58854  0.25415  0.21596  1.0000
  O   O22       1.0  0.41146  0.75415  0.28404  1.0000
  O   O23       1.0  0.41146  0.74585  0.78404  1.0000
  O   O24       1.0  0.58854  0.24585  0.71596  1.0000
  O   O25       1.0  0.76694  0.26577  0.18860  1.0000
  O   O26       1.0  0.23306  0.76577  0.31140  1.0000
  O   O27       1.0  0.23306  0.73423  0.81140  1.0000
  O   O28       1.0  0.76694  0.23423  0.68860  1.0000
  O   O29       1.0  0.51739  0.45653  0.24872  1.0000
  O   O30       1.0  0.48261  0.95653  0.25128  1.0000
  O   O31       1.0  0.48261  0.54347  0.75128  1.0000
  O   O32       1.0  0.51739  0.04347  0.74872  1.0000
  O   O33       1.0  0.94519  0.21172  0.15174  1.0000
  O   O34       1.0  0.05481  0.71172  0.34826  1.0000
  O   O35       1.0  0.05481  0.78828  0.84826  1.0000
  O   O36       1.0  0.94519  0.28828  0.65174  1.0000
  O   O37       1.0  0.78376  0.20549  0.09122  1.0000
  O   O38       1.0  0.21624  0.70549  0.40878  1.0000
  O   O39       1.0  0.21624  0.79451  0.90878  1.0000
  O   O40       1.0  0.78376  0.29451  0.59122  1.0000
  O   O41       1.0  0.41126  0.20009  0.14881  1.0000
  O   O42       1.0  0.58874  0.70009  0.35119  1.0000
  O   O43       1.0  0.58874  0.79991  0.85119  1.0000
  O   O44       1.0  0.41126  0.29991  0.64881  1.0000
  O   O45       1.0  0.46459  0.20659  0.08951  1.0000
  O   O46       1.0  0.53541  0.70659  0.41049  1.0000
  O   O47       1.0  0.53541  0.79341  0.91049  1.0000
  O   O48       1.0  0.46459  0.29341  0.58951  1.0000
  O   O49       1.0  0.92371  0.28845  0.75664  1.0000
  O   O50       1.0  0.07629  0.78845  0.74336  1.0000
  O   O51       1.0  0.07629  0.71155  0.24336  1.0000
  O   O52       1.0  0.92371  0.21155  0.25664  1.0000
  O   O53       1.0  0.72238  0.31568  0.76587  1.0000
  O   O54       1.0  0.27762  0.81568  0.73413  1.0000
  O   O55       1.0  0.27762  0.68432  0.23413  1.0000
  O   O56       1.0  0.72238  0.18432  0.26587  1.0000
  O   O57       1.0  0.83675  0.28503  0.96874  1.0000
  O   O58       1.0  0.16325  0.78503  0.53126  1.0000
  O   O59       1.0  0.16325  0.71497  0.03126  1.0000
  O   O60       1.0  0.83675  0.21497  0.46874  1.0000
  O   O61       1.0  0.64804  0.07559  0.12889  1.0000
  O   O62       1.0  0.35196  0.57559  0.37111  1.0000
  O   O63       1.0  0.35196  0.92441  0.87111  1.0000
  O   O64       1.0  0.64804  0.42441  0.62889  1.0000
  O   O65       1.0  0.60426  0.12673  0.07873  1.0000
  O   O66       1.0  0.39574  0.62673  0.42127  1.0000
  O   O67       1.0  0.39574  0.87327  0.92127  1.0000
  O   O68       1.0  0.60426  0.37327  0.57873  1.0000
  Zn  Zn1       1.0  0.86763  0.19427  0.19843  1.0000
  Zn  Zn2       1.0  0.13237  0.69427  0.30157  1.0000
  Zn  Zn3       1.0  0.13237  0.80573  0.80157  1.0000
  Zn  Zn4       1.0  0.86763  0.30573  0.69843  1.0000
  Zn  Zn5       1.0  0.70849  0.10626  0.18284  1.0000
  Zn  Zn6       1.0  0.29151  0.60626  0.31716  1.0000
  Zn  Zn7       1.0  0.29151  0.89374  0.81716  1.0000
  Zn  Zn8       1.0  0.70849  0.39374  0.68284  1.0000
  Zn  Zn9       1.0  0.57754  0.19096  0.20130  1.0000
  Zn  Zn10      1.0  0.42246  0.69096  0.29870  1.0000
  Zn  Zn11      1.0  0.42246  0.80904  0.79870  1.0000
  Zn  Zn12      1.0  0.57754  0.30904  0.70130  1.0000
  Zn  Zn13      1.0  0.64179  0.17885  0.11157  1.0000
  Zn  Zn14      1.0  0.35821  0.67885  0.38843  1.0000
  Zn  Zn15      1.0  0.35821  0.82115  0.88843  1.0000
  Zn  Zn16      1.0  0.64179  0.32115  0.61157  1.0000
