data_image0
_chemical_formula_structural       C12H4C8H4C8H4C16H4C4H4C8H4C4H4C16H4C8H4C8H4C16H4C4H4C8H4C4H4C16H4C4H4N4H4N4H4O68Zn16
_chemical_formula_sum              "C144 H72 N8 O68 Zn16"
_cell_length_a       10.297
_cell_length_b       30.9262
_cell_length_c       30.5635
_cell_angle_alpha    90
_cell_angle_beta     91.468
_cell_angle_gamma    90

_space_group_name_H-M_alt    "P 1"
_space_group_IT_number       1

loop_
  _space_group_symop_operation_xyz
  'x, y, z'

loop_
  _atom_site_type_symbol
  _atom_site_label
  _atom_site_symmetry_multiplicity
  _atom_site_fract_x
  _atom_site_fract_y
  _atom_site_fract_z
  _atom_site_occupancy
  C   C1        1.0  0.77110  0.31328  0.41092  1.0000
  C   C2        1.0  0.72890  0.81328  0.08908  1.0000
  C   C3        1.0  0.22890  0.68672  0.58908  1.0000
  C   C4        1.0  0.27110  0.18672  0.91092  1.0000
  C   C5        1.0  0.64690  0.30095  0.43378  1.0000
  C   C6        1.0  0.85310  0.80095  0.06622  1.0000
  C   C7        1.0  0.35310  0.69905  0.56622  1.0000
  C   C8        1.0  0.14690  0.19905  0.93378  1.0000
  C   C9        1.0  0.65170  0.28717  0.47757  1.0000
  C   C10       1.0  0.84830  0.78717  0.02243  1.0000
  C   C11       1.0  0.34830  0.71283  0.52243  1.0000
  C   C12       1.0  0.15170  0.21283  0.97757  1.0000
  H   H1        1.0  0.73090  0.28430  0.49270  1.0000
  H   H2        1.0  0.76910  0.78430  0.00730  1.0000
  H   H3        1.0  0.26910  0.71570  0.50730  1.0000
  H   H4        1.0  0.23090  0.21570  0.99270  1.0000
  C   C13       1.0  0.53440  0.27776  0.49814  1.0000
  C   C14       1.0  0.96560  0.77776  0.00186  1.0000
  C   C15       1.0  0.46560  0.72224  0.50186  1.0000
  C   C16       1.0  0.03440  0.22224  0.99814  1.0000
  C   C17       1.0  0.41660  0.28544  0.47611  1.0000
  C   C18       1.0  0.08340  0.78544  0.02389  1.0000
  C   C19       1.0  0.58340  0.71456  0.52389  1.0000
  C   C20       1.0  0.91660  0.21456  0.97611  1.0000
  H   H5        1.0  0.33870  0.28110  0.49020  1.0000
  H   H6        1.0  0.16130  0.78110  0.00980  1.0000
  H   H7        1.0  0.66130  0.71890  0.50980  1.0000
  H   H8        1.0  0.83870  0.21890  0.99020  1.0000
  C   C21       1.0  0.41590  0.29943  0.43337  1.0000
  C   C22       1.0  0.08410  0.79943  0.06663  1.0000
  C   C23       1.0  0.58410  0.70057  0.56663  1.0000
  C   C24       1.0  0.91590  0.20057  0.93337  1.0000
  C   C25       1.0  0.52930  0.30696  0.41171  1.0000
  C   C26       1.0  0.97070  0.80696  0.08829  1.0000
  C   C27       1.0  0.47070  0.69304  0.58829  1.0000
  C   C28       1.0  0.02930  0.19304  0.91171  1.0000
  H   H9        1.0  0.52690  0.31600  0.38270  1.0000
  H   H10       1.0  0.97310  0.81600  0.11730  1.0000
  H   H11       1.0  0.47310  0.68400  0.61730  1.0000
  H   H12       1.0  0.02690  0.18400  0.88270  1.0000
  C   C29       1.0  0.28900  0.30818  0.40881  1.0000
  C   C30       1.0  0.21100  0.80818  0.09119  1.0000
  C   C31       1.0  0.71100  0.69182  0.59119  1.0000
  C   C32       1.0  0.78900  0.19182  0.90881  1.0000
  C   C33       1.0  0.46190  0.23773  0.56296  1.0000
  C   C34       1.0  0.03810  0.73773  0.93704  1.0000
  C   C35       1.0  0.53810  0.76227  0.43704  1.0000
  C   C36       1.0  0.96190  0.26227  0.06296  1.0000
  C   C37       1.0  0.49630  0.22408  0.60903  1.0000
  C   C38       1.0  0.00370  0.72408  0.89097  1.0000
  C   C39       1.0  0.50370  0.77592  0.39097  1.0000
  C   C40       1.0  0.99630  0.27592  0.10903  1.0000
  C   C41       1.0  0.61510  0.23360  0.62908  1.0000
  C   C42       1.0  0.88490  0.73360  0.87092  1.0000
  C   C43       1.0  0.38490  0.76640  0.37092  1.0000
  C   C44       1.0  0.11510  0.26640  0.12908  1.0000
  H   H13       1.0  0.67670  0.24940  0.61410  1.0000
  H   H14       1.0  0.82330  0.74940  0.88590  1.0000
  H   H15       1.0  0.32330  0.75060  0.38590  1.0000
  H   H16       1.0  0.17670  0.25060  0.11410  1.0000
  C   C45       1.0  0.64300  0.21916  0.67252  1.0000
  C   C46       1.0  0.85700  0.71916  0.82748  1.0000
  C   C47       1.0  0.35700  0.78084  0.32748  1.0000
  C   C48       1.0  0.14300  0.28084  0.17252  1.0000
  H   H17       1.0  0.72300  0.22500  0.68600  1.0000
  H   H18       1.0  0.77700  0.72500  0.81400  1.0000
  H   H19       1.0  0.27700  0.77500  0.31400  1.0000
  H   H20       1.0  0.22300  0.27500  0.18600  1.0000
  C   C49       1.0  0.54780  0.19596  0.69467  1.0000
  C   C50       1.0  0.95220  0.69596  0.80533  1.0000
  C   C51       1.0  0.45220  0.80404  0.30533  1.0000
  C   C52       1.0  0.04780  0.30404  0.19467  1.0000
  C   C53       1.0  0.43010  0.18633  0.67509  1.0000
  C   C54       1.0  0.06990  0.68633  0.82491  1.0000
  C   C55       1.0  0.56990  0.81367  0.32491  1.0000
  C   C56       1.0  0.93010  0.31367  0.17509  1.0000
  H   H21       1.0  0.36840  0.17070  0.69010  1.0000
  H   H22       1.0  0.13160  0.67070  0.80990  1.0000
  H   H23       1.0  0.63160  0.82930  0.30990  1.0000
  H   H24       1.0  0.86840  0.32930  0.19010  1.0000
  C   C57       1.0  0.40390  0.20050  0.63181  1.0000
  C   C58       1.0  0.09610  0.70050  0.86819  1.0000
  C   C59       1.0  0.59610  0.79950  0.36819  1.0000
  C   C60       1.0  0.90390  0.29950  0.13181  1.0000
  H   H25       1.0  0.32430  0.19410  0.61830  1.0000
  H   H26       1.0  0.17570  0.69410  0.88170  1.0000
  H   H27       1.0  0.67570  0.80590  0.38170  1.0000
  H   H28       1.0  0.82430  0.30590  0.11830  1.0000
  C   C61       1.0  0.56550  0.18115  0.74009  1.0000
  C   C62       1.0  0.93450  0.68115  0.75991  1.0000
  C   C63       1.0  0.43450  0.81885  0.25991  1.0000
  C   C64       1.0  0.06550  0.31885  0.24009  1.0000
  C   C65       1.0  0.27830  0.41887  0.30559  1.0000
  C   C66       1.0  0.22170  0.91887  0.19441  1.0000
  C   C67       1.0  0.72170  0.58113  0.69441  1.0000
  C   C68       1.0  0.77830  0.08113  0.80559  1.0000
  C   C69       1.0  0.40310  0.44214  0.29551  1.0000
  C   C70       1.0  0.09690  0.94214  0.20449  1.0000
  C   C71       1.0  0.59690  0.55786  0.70449  1.0000
  C   C72       1.0  0.90310  0.05786  0.79551  1.0000
  C   C73       1.0  0.40060  0.48564  0.28267  1.0000
  C   C74       1.0  0.09940  0.98564  0.21733  1.0000
  C   C75       1.0  0.59940  0.51436  0.71733  1.0000
  C   C76       1.0  0.90060  0.01436  0.78267  1.0000
  H   H29       1.0  0.32250  0.50060  0.27970  1.0000
  H   H30       1.0  0.17750  0.00060  0.22030  1.0000
  H   H31       1.0  0.67750  0.49940  0.72030  1.0000
  H   H32       1.0  0.82250  0.99940  0.77970  1.0000
  C   C77       1.0  0.51880  0.50595  0.27440  1.0000
  C   C78       1.0  0.98120  0.00595  0.22560  1.0000
  C   C79       1.0  0.48120  0.49405  0.72560  1.0000
  C   C80       1.0  0.01880  0.99405  0.77440  1.0000
  C   C81       1.0  0.63440  0.48445  0.28041  1.0000
  C   C82       1.0  0.86560  0.98445  0.21959  1.0000
  C   C83       1.0  0.36560  0.51555  0.71959  1.0000
  C   C84       1.0  0.13440  0.01555  0.78041  1.0000
  H   H33       1.0  0.71230  0.49890  0.27620  1.0000
  H   H34       1.0  0.78770  0.99890  0.22380  1.0000
  H   H35       1.0  0.28770  0.50110  0.72380  1.0000
  H   H36       1.0  0.21230  0.00110  0.77620  1.0000
  C   C85       1.0  0.63570  0.44063  0.29299  1.0000
  C   C86       1.0  0.86430  0.94063  0.20701  1.0000
  C   C87       1.0  0.36430  0.55937  0.70701  1.0000
  C   C88       1.0  0.13570  0.05937  0.79299  1.0000
  C   C89       1.0  0.51860  0.41925  0.29959  1.0000
  C   C90       1.0  0.98140  0.91925  0.20041  1.0000
  C   C91       1.0  0.48140  0.58075  0.70041  1.0000
  C   C92       1.0  0.01860  0.08075  0.79959  1.0000
  H   H37       1.0  0.51800  0.39000  0.30660  1.0000
  H   H38       1.0  0.98200  0.89000  0.19340  1.0000
  H   H39       1.0  0.48200  0.61000  0.69340  1.0000
  H   H40       1.0  0.01800  0.11000  0.80660  1.0000
  C   C93       1.0  0.76120  0.41637  0.30012  1.0000
  C   C94       1.0  0.73880  0.91637  0.19988  1.0000
  C   C95       1.0  0.23880  0.58363  0.69988  1.0000
  C   C96       1.0  0.26120  0.08363  0.80012  1.0000
  C   C97       1.0  0.60070  0.58049  0.26210  1.0000
  C   C98       1.0  0.89930  0.08049  0.23790  1.0000
  C   C99       1.0  0.39930  0.41951  0.73790  1.0000
  C   C100      1.0  0.10070  0.91951  0.76210  1.0000
  C   C101      1.0  0.57350  0.62570  0.24520  1.0000
  C   C102      1.0  0.92650  0.12570  0.25480  1.0000
  C   C103      1.0  0.42650  0.37430  0.75480  1.0000
  C   C104      1.0  0.07350  0.87430  0.74520  1.0000
  C   C105      1.0  0.45600  0.63740  0.22722  1.0000
  C   C106      1.0  0.04400  0.13740  0.27278  1.0000
  C   C107      1.0  0.54400  0.36260  0.77278  1.0000
  C   C108      1.0  0.95600  0.86260  0.72722  1.0000
  H   H41       1.0  0.38860  0.61740  0.22590  1.0000
  H   H42       1.0  0.11140  0.11740  0.27410  1.0000
  H   H43       1.0  0.61140  0.38260  0.77410  1.0000
  H   H44       1.0  0.88860  0.88260  0.72590  1.0000
  C   C109      1.0  0.43580  0.67949  0.21060  1.0000
  C   C110      1.0  0.06420  0.17949  0.28940  1.0000
  C   C111      1.0  0.56420  0.32051  0.78940  1.0000
  C   C112      1.0  0.93580  0.82051  0.71060  1.0000
  H   H45       1.0  0.35630  0.68760  0.19810  1.0000
  H   H46       1.0  0.14370  0.18760  0.30190  1.0000
  H   H47       1.0  0.64370  0.31240  0.80190  1.0000
  H   H48       1.0  0.85630  0.81240  0.69810  1.0000
  C   C113      1.0  0.53790  0.70821  0.21360  1.0000
  C   C114      1.0  0.96210  0.20821  0.28640  1.0000
  C   C115      1.0  0.46210  0.29179  0.78640  1.0000
  C   C116      1.0  0.03790  0.79179  0.71360  1.0000
  C   C117      1.0  0.65820  0.69601  0.23243  1.0000
  C   C118      1.0  0.84180  0.19601  0.26757  1.0000
  C   C119      1.0  0.34180  0.30399  0.76757  1.0000
  C   C120      1.0  0.15820  0.80399  0.73243  1.0000
  H   H49       1.0  0.72620  0.71580  0.23410  1.0000
  H   H50       1.0  0.77380  0.21580  0.26590  1.0000
  H   H51       1.0  0.27380  0.28420  0.76590  1.0000
  H   H52       1.0  0.22620  0.78420  0.73410  1.0000
  C   C121      1.0  0.67530  0.65500  0.24828  1.0000
  C   C122      1.0  0.82470  0.15500  0.25172  1.0000
  C   C123      1.0  0.32470  0.34500  0.75172  1.0000
  C   C124      1.0  0.17530  0.84500  0.74828  1.0000
  H   H53       1.0  0.75450  0.64680  0.26100  1.0000
  H   H54       1.0  0.74550  0.14680  0.23900  1.0000
  H   H55       1.0  0.24550  0.35320  0.73900  1.0000
  H   H56       1.0  0.25450  0.85320  0.76100  1.0000
  C   C125      1.0  0.52790  0.74950  0.18653  1.0000
  C   C126      1.0  0.97210  0.24950  0.31347  1.0000
  C   C127      1.0  0.47210  0.25050  0.81347  1.0000
  C   C128      1.0  0.02790  0.75050  0.68653  1.0000
  C   C129      1.0  0.01910  0.43546  0.43187  1.0000
  C   C130      1.0  0.48090  0.93546  0.06813  1.0000
  C   C131      1.0  0.98090  0.56454  0.56813  1.0000
  C   C132      1.0  0.51910  0.06454  0.93187  1.0000
  C   C133      1.0  0.01090  0.46820  0.46765  1.0000
  C   C134      1.0  0.48910  0.96820  0.03235  1.0000
  C   C135      1.0  0.98910  0.53180  0.53235  1.0000
  C   C136      1.0  0.51090  0.03180  0.96765  1.0000
  C   C137      1.0  0.01260  0.45677  0.51046  1.0000
  C   C138      1.0  0.48740  0.95677  0.98954  1.0000
  C   C139      1.0  0.98740  0.54323  0.48954  1.0000
  C   C140      1.0  0.51260  0.04323  0.01046  1.0000
  H   H57       1.0  0.02110  0.42780  0.51820  1.0000
  H   H58       1.0  0.47890  0.92780  0.98180  1.0000
  H   H59       1.0  0.97890  0.57220  0.48180  1.0000
  H   H60       1.0  0.52110  0.07220  0.01820  1.0000
  C   C141      1.0  0.99820  0.51189  0.45679  1.0000
  C   C142      1.0  0.50180  0.01189  0.04321  1.0000
  C   C143      1.0  0.00180  0.48811  0.54321  1.0000
  C   C144      1.0  0.49820  0.98811  0.95679  1.0000
  H   H61       1.0  0.99700  0.52020  0.42750  1.0000
  H   H62       1.0  0.50300  0.02020  0.07250  1.0000
  H   H63       1.0  0.00300  0.47980  0.57250  1.0000
  H   H64       1.0  0.49700  0.97980  0.92750  1.0000
  N   N1        1.0  0.54210  0.26208  0.54105  1.0000
  N   N2        1.0  0.95790  0.76208  0.95895  1.0000
  N   N3        1.0  0.45790  0.73792  0.45895  1.0000
  N   N4        1.0  0.04210  0.23792  0.04105  1.0000
  H   H65       1.0  0.61100  0.26970  0.55560  1.0000
  H   H66       1.0  0.88900  0.76970  0.94440  1.0000
  H   H67       1.0  0.38900  0.73030  0.44440  1.0000
  H   H68       1.0  0.11100  0.23030  0.05560  1.0000
  N   N5        1.0  0.51040  0.55165  0.26383  1.0000
  N   N6        1.0  0.98960  0.05165  0.23617  1.0000
  N   N7        1.0  0.48960  0.44835  0.73617  1.0000
  N   N8        1.0  0.01040  0.94835  0.76383  1.0000
  H   H69       1.0  0.43330  0.56090  0.25780  1.0000
  H   H70       1.0  0.06670  0.06090  0.24220  1.0000
  H   H71       1.0  0.56670  0.43910  0.74220  1.0000
  H   H72       1.0  0.93330  0.93910  0.75780  1.0000
  O   O1        1.0  0.02320  0.35663  0.34909  1.0000
  O   O2        1.0  0.47680  0.85663  0.15091  1.0000
  O   O3        1.0  0.97680  0.64337  0.65091  1.0000
  O   O4        1.0  0.52320  0.14337  0.84909  1.0000
  O   O5        1.0  0.87550  0.31279  0.43271  1.0000
  O   O6        1.0  0.62450  0.81279  0.06729  1.0000
  O   O7        1.0  0.12450  0.68721  0.56729  1.0000
  O   O8        1.0  0.37550  0.18721  0.93271  1.0000
  O   O9        1.0  0.75800  0.32147  0.37182  1.0000
  O   O10       1.0  0.74200  0.82147  0.12818  1.0000
  O   O11       1.0  0.24200  0.67853  0.62818  1.0000
  O   O12       1.0  0.25800  0.17853  0.87182  1.0000
  O   O13       1.0  0.29390  0.30786  0.36797  1.0000
  O   O14       1.0  0.20610  0.80786  0.13203  1.0000
  O   O15       1.0  0.70610  0.69214  0.63203  1.0000
  O   O16       1.0  0.79390  0.19214  0.86797  1.0000
  O   O17       1.0  0.18820  0.31430  0.43076  1.0000
  O   O18       1.0  0.31180  0.81430  0.06924  1.0000
  O   O19       1.0  0.81180  0.68570  0.56924  1.0000
  O   O20       1.0  0.68820  0.18570  0.93076  1.0000
  O   O21       1.0  0.35400  0.23123  0.54512  1.0000
  O   O22       1.0  0.14600  0.73123  0.95488  1.0000
  O   O23       1.0  0.64600  0.76877  0.45488  1.0000
  O   O24       1.0  0.85400  0.26877  0.04512  1.0000
  O   O25       1.0  0.47710  0.16143  0.75416  1.0000
  O   O26       1.0  0.02290  0.66143  0.74584  1.0000
  O   O27       1.0  0.52290  0.83857  0.24584  1.0000
  O   O28       1.0  0.97710  0.33857  0.25416  1.0000
  O   O29       1.0  0.66660  0.19105  0.76156  1.0000
  O   O30       1.0  0.83340  0.69105  0.73844  1.0000
  O   O31       1.0  0.33340  0.80895  0.23844  1.0000
  O   O32       1.0  0.16660  0.30895  0.26156  1.0000
  O   O33       1.0  0.17760  0.44147  0.30918  1.0000
  O   O34       1.0  0.32240  0.94147  0.19082  1.0000
  O   O35       1.0  0.82240  0.55853  0.69082  1.0000
  O   O36       1.0  0.67760  0.05853  0.80918  1.0000
  O   O37       1.0  0.28670  0.37959  0.30968  1.0000
  O   O38       1.0  0.21330  0.87959  0.19032  1.0000
  O   O39       1.0  0.71330  0.62041  0.69032  1.0000
  O   O40       1.0  0.78670  0.12041  0.80968  1.0000
  O   O41       1.0  0.75100  0.37594  0.29861  1.0000
  O   O42       1.0  0.74900  0.87594  0.20139  1.0000
  O   O43       1.0  0.24900  0.62406  0.70139  1.0000
  O   O44       1.0  0.25100  0.12406  0.79861  1.0000
  O   O45       1.0  0.86120  0.43772  0.30753  1.0000
  O   O46       1.0  0.63880  0.93772  0.19247  1.0000
  O   O47       1.0  0.13880  0.56228  0.69247  1.0000
  O   O48       1.0  0.36120  0.06228  0.80753  1.0000
  O   O49       1.0  0.70750  0.56878  0.27763  1.0000
  O   O50       1.0  0.79250  0.06878  0.22237  1.0000
  O   O51       1.0  0.29250  0.43122  0.72237  1.0000
  O   O52       1.0  0.20750  0.93122  0.77763  1.0000
  O   O53       1.0  0.63000  0.76955  0.19775  1.0000
  O   O54       1.0  0.87000  0.26955  0.30225  1.0000
  O   O55       1.0  0.37000  0.23045  0.80225  1.0000
  O   O56       1.0  0.13000  0.73045  0.69775  1.0000
  O   O57       1.0  0.43410  0.76351  0.16698  1.0000
  O   O58       1.0  0.06590  0.26351  0.33302  1.0000
  O   O59       1.0  0.56590  0.23649  0.83302  1.0000
  O   O60       1.0  0.93410  0.73649  0.66698  1.0000
  O   O61       1.0  0.02680  0.39703  0.44313  1.0000
  O   O62       1.0  0.47320  0.89703  0.05687  1.0000
  O   O63       1.0  0.97320  0.60297  0.55687  1.0000
  O   O64       1.0  0.52680  0.10297  0.94313  1.0000
  O   O65       1.0  0.01760  0.44887  0.39315  1.0000
  O   O66       1.0  0.48240  0.94887  0.10685  1.0000
  O   O67       1.0  0.98240  0.55113  0.60685  1.0000
  O   O68       1.0  0.51760  0.05113  0.89315  1.0000
  Zn  Zn1       1.0  0.87466  0.33046  0.31832  1.0000
  Zn  Zn2       1.0  0.62534  0.83046  0.18168  1.0000
  Zn  Zn3       1.0  0.12534  0.66954  0.68168  1.0000
  Zn  Zn4       1.0  0.37466  0.16954  0.81832  1.0000
  Zn  Zn5       1.0  0.02680  0.34202  0.41008  1.0000
  Zn  Zn6       1.0  0.47320  0.84202  0.08992  1.0000
  Zn  Zn7       1.0  0.97320  0.65798  0.58992  1.0000
  Zn  Zn8       1.0  0.52680  0.15798  0.91008  1.0000
  Zn  Zn9       1.0  0.02341  0.41754  0.33683  1.0000
  Zn  Zn10      1.0  0.47659  0.91754  0.16317  1.0000
  Zn  Zn11      1.0  0.97659  0.58246  0.66317  1.0000
  Zn  Zn12      1.0  0.52341  0.08246  0.83683  1.0000
  Zn  Zn13      1.0  0.16829  0.32687  0.32186  1.0000
  Zn  Zn14      1.0  0.33171  0.82687  0.17814  1.0000
  Zn  Zn15      1.0  0.83171  0.67313  0.67814  1.0000
  Zn  Zn16      1.0  0.66829  0.17313  0.82186  1.0000
