data_image0
_chemical_formula_structural       Co3P4N4C4H6C2H2C2H2C2H2C4H2C2H2C4H2C2H2C2H2C4O14H2O2H4
_chemical_formula_sum              "Co3 P4 N4 C28 H28 O16"
_cell_length_a       6.5167
_cell_length_b       11.8741
_cell_length_c       12.624
_cell_angle_alpha    95.531
_cell_angle_beta     102.07
_cell_angle_gamma    91.744

_space_group_name_H-M_alt    "P 1"
_space_group_IT_number       1

loop_
  _space_group_symop_operation_xyz
  'x, y, z'

loop_
  _atom_site_type_symbol
  _atom_site_label
  _atom_site_symmetry_multiplicity
  _atom_site_fract_x
  _atom_site_fract_y
  _atom_site_fract_z
  _atom_site_occupancy
  Co  Co1       1.0  0.88614  0.74844  0.28545  1.0000
  Co  Co2       1.0  0.11386  0.25156  0.71455  1.0000
  Co  Co3       1.0  0.50000  0.00000  0.50000  1.0000
  P   P1        1.0  0.39027  0.79849  0.32895  1.0000
  P   P2        1.0  0.60973  0.20151  0.67105  1.0000
  P   P3        1.0  0.12004  0.00280  0.31451  1.0000
  P   P4        1.0  0.87996  0.99720  0.68549  1.0000
  N   N1        1.0  0.84180  0.56850  0.27640  1.0000
  N   N2        1.0  0.15820  0.43150  0.72360  1.0000
  N   N3        1.0  0.80880  0.69960  0.11280  1.0000
  N   N4        1.0  0.19120  0.30040  0.88720  1.0000
  C   C1        1.0  0.34480  0.93500  0.27140  1.0000
  C   C2        1.0  0.65520  0.06500  0.72860  1.0000
  C   C3        1.0  0.32740  0.92570  0.14900  1.0000
  C   C4        1.0  0.67260  0.07430  0.85100  1.0000
  H   H1        1.0  0.31350  0.99970  0.12440  1.0000
  H   H2        1.0  0.68650  0.00030  0.87560  1.0000
  H   H3        1.0  0.20640  0.87790  0.11340  1.0000
  H   H4        1.0  0.79360  0.12210  0.88660  1.0000
  H   H5        1.0  0.45140  0.89370  0.13170  1.0000
  H   H6        1.0  0.54860  0.10630  0.86830  1.0000
  C   C5        1.0  0.85000  0.50450  0.35750  1.0000
  C   C6        1.0  0.15000  0.49550  0.64250  1.0000
  H   H7        1.0  0.87330  0.54010  0.42820  1.0000
  H   H8        1.0  0.12670  0.45990  0.57180  1.0000
  C   C7        1.0  0.82570  0.38740  0.34230  1.0000
  C   C8        1.0  0.17430  0.61260  0.65770  1.0000
  H   H9        1.0  0.83130  0.34570  0.40140  1.0000
  H   H10       1.0  0.16870  0.65430  0.59860  1.0000
  C   C9        1.0  0.79340  0.33440  0.23910  1.0000
  C   C10       1.0  0.20660  0.66560  0.76090  1.0000
  H   H11       1.0  0.77850  0.25580  0.22770  1.0000
  H   H12       1.0  0.22150  0.74420  0.77230  1.0000
  C   C11       1.0  0.78260  0.39780  0.15000  1.0000
  C   C12       1.0  0.21740  0.60220  0.85000  1.0000
  C   C13       1.0  0.74300  0.35080  0.03900  1.0000
  C   C14       1.0  0.25700  0.64920  0.96100  1.0000
  H   H13       1.0  0.72730  0.27250  0.02320  1.0000
  H   H14       1.0  0.27270  0.72750  0.97680  1.0000
  C   C15       1.0  0.72760  0.41520  0.95680  1.0000
  C   C16       1.0  0.27240  0.58480  0.04320  1.0000
  H   H15       1.0  0.70400  0.38090  0.88560  1.0000
  H   H16       1.0  0.29600  0.61910  0.11440  1.0000
  C   C17       1.0  0.74690  0.53640  0.97680  1.0000
  C   C18       1.0  0.25310  0.46360  0.02320  1.0000
  C   C19       1.0  0.72650  0.60980  0.89520  1.0000
  C   C20       1.0  0.27350  0.39020  0.10480  1.0000
  H   H17       1.0  0.70060  0.58060  0.82230  1.0000
  H   H18       1.0  0.29940  0.41940  0.17770  1.0000
  C   C21       1.0  0.74440  0.72300  0.92250  1.0000
  C   C22       1.0  0.25560  0.27700  0.07750  1.0000
  H   H19       1.0  0.72900  0.77200  0.86850  1.0000
  H   H20       1.0  0.27100  0.22800  0.13150  1.0000
  C   C23       1.0  0.78640  0.76620  0.03240  1.0000
  C   C24       1.0  0.21360  0.23380  0.96760  1.0000
  H   H21       1.0  0.79910  0.84440  0.05010  1.0000
  H   H22       1.0  0.20090  0.15560  0.94990  1.0000
  C   C25       1.0  0.78950  0.58630  0.08640  1.0000
  C   C26       1.0  0.21050  0.41370  0.91360  1.0000
  C   C27       1.0  0.80630  0.51580  0.17250  1.0000
  C   C28       1.0  0.19370  0.48420  0.82750  1.0000
  O   O1        1.0  0.58280  0.75510  0.29440  1.0000
  O   O2        1.0  0.41720  0.24490  0.70560  1.0000
  O   O3        1.0  0.42190  0.83060  0.45233  1.0000
  O   O4        1.0  0.57810  0.16940  0.54767  1.0000
  O   O5        1.0  0.19760  0.71910  0.28563  1.0000
  O   O6        1.0  0.80240  0.28090  0.71437  1.0000
  O   O7        1.0  0.19060  0.03240  0.43636  1.0000
  O   O8        1.0  0.80940  0.96760  0.56364  1.0000
  O   O9        1.0  0.92370  0.92750  0.27350  1.0000
  O   O10       1.0  0.07630  0.07250  0.72650  1.0000
  O   O11       1.0  0.08820  0.11550  0.25790  1.0000
  O   O12       1.0  0.91180  0.88450  0.74210  1.0000
  O   O13       1.0  0.52630  0.00940  0.32870  1.0000
  O   O14       1.0  0.47370  0.99060  0.67130  1.0000
  H   H23       1.0  0.63310  0.98210  0.31420  1.0000
  H   H24       1.0  0.36690  0.01790  0.68580  1.0000
  O   O15       1.0  0.98720  0.78480  0.46060  1.0000
  O   O16       1.0  0.01280  0.21520  0.53940  1.0000
  H   H25       1.0  0.11460  0.79400  0.46940  1.0000
  H   H26       1.0  0.88540  0.20600  0.53060  1.0000
  H   H27       1.0  0.92670  0.83070  0.49340  1.0000
  H   H28       1.0  0.07330  0.16930  0.50660  1.0000
