data_image0
_chemical_formula_structural       O8N4O12N4O8C12H4C24H4C4H4O4C4H4C8H4C4H4Li12
_chemical_formula_sum              "O32 N8 C56 H24 Li12"
_cell_length_a       11.51
_cell_length_b       15.33
_cell_length_c       10.93
_cell_angle_alpha    90
_cell_angle_beta     99.98
_cell_angle_gamma    90

_space_group_name_H-M_alt    "P 1"
_space_group_IT_number       1

loop_
  _space_group_symop_operation_xyz
  'x, y, z'

loop_
  _atom_site_type_symbol
  _atom_site_label
  _atom_site_symmetry_multiplicity
  _atom_site_fract_x
  _atom_site_fract_y
  _atom_site_fract_z
  _atom_site_occupancy
  O   O1        1.0  0.40095  0.93112  0.83625  1.0000
  O   O2        1.0  0.59905  0.43112  0.66375  1.0000
  O   O3        1.0  0.59905  0.06888  0.16375  1.0000
  O   O4        1.0  0.40095  0.56888  0.33625  1.0000
  O   O5        1.0  0.68336  0.19171  0.00452  1.0000
  O   O6        1.0  0.31664  0.69171  0.49548  1.0000
  O   O7        1.0  0.31664  0.80829  0.99548  1.0000
  O   O8        1.0  0.68336  0.30829  0.50452  1.0000
  N   N1        1.0  0.40813  0.10772  0.62952  1.0000
  N   N2        1.0  0.59187  0.60772  0.87048  1.0000
  N   N3        1.0  0.59187  0.89228  0.37048  1.0000
  N   N4        1.0  0.40813  0.39228  0.12952  1.0000
  O   O9        1.0  0.44313  0.27159  0.56620  1.0000
  O   O10       1.0  0.55687  0.77159  0.93380  1.0000
  O   O11       1.0  0.55687  0.72841  0.43380  1.0000
  O   O12       1.0  0.44313  0.22841  0.06620  1.0000
  O   O13       1.0  0.47448  0.06519  0.86692  1.0000
  O   O14       1.0  0.52552  0.56519  0.63308  1.0000
  O   O15       1.0  0.52552  0.93481  0.13308  1.0000
  O   O16       1.0  0.47448  0.43481  0.36692  1.0000
  O   O17       1.0  0.65216  0.23527  0.80607  1.0000
  O   O18       1.0  0.34784  0.73527  0.69393  1.0000
  O   O19       1.0  0.34784  0.76473  0.19393  1.0000
  O   O20       1.0  0.65216  0.26473  0.30607  1.0000
  N   N5        1.0  0.85034  0.32785  0.83996  1.0000
  N   N6        1.0  0.14966  0.82785  0.66004  1.0000
  N   N7        1.0  0.14966  0.67215  0.16004  1.0000
  N   N8        1.0  0.85034  0.17215  0.33996  1.0000
  O   O21       1.0  0.88105  0.42308  0.64854  1.0000
  O   O22       1.0  0.11895  0.92308  0.85146  1.0000
  O   O23       1.0  0.11895  0.57692  0.35146  1.0000
  O   O24       1.0  0.88105  0.07692  0.14854  1.0000
  O   O25       1.0  0.39599  0.23942  0.36420  1.0000
  O   O26       1.0  0.60401  0.73942  0.13580  1.0000
  O   O27       1.0  0.60401  0.76058  0.63580  1.0000
  O   O28       1.0  0.39599  0.26058  0.86420  1.0000
  C   C1        1.0  0.94720  0.37720  0.85408  1.0000
  C   C2        1.0  0.05280  0.87720  0.64592  1.0000
  C   C3        1.0  0.05280  0.62280  0.14592  1.0000
  C   C4        1.0  0.94720  0.12280  0.35408  1.0000
  C   C5        1.0  0.39398  0.02482  0.66238  1.0000
  C   C6        1.0  0.60602  0.52482  0.83762  1.0000
  C   C7        1.0  0.60602  0.97518  0.33762  1.0000
  C   C8        1.0  0.39398  0.47518  0.16238  1.0000
  C   C9        1.0  0.34170  0.06701  0.41860  1.0000
  C   C10       1.0  0.65830  0.56701  0.08140  1.0000
  C   C11       1.0  0.65830  0.93299  0.58140  1.0000
  C   C12       1.0  0.34170  0.43299  0.91860  1.0000
  H   H1        1.0  0.32340  0.08350  0.33560  1.0000
  H   H2        1.0  0.67660  0.58350  0.16440  1.0000
  H   H3        1.0  0.67660  0.91650  0.66440  1.0000
  H   H4        1.0  0.32340  0.41650  0.83560  1.0000
  C   C13       1.0  0.71150  0.23226  0.91387  1.0000
  C   C14       1.0  0.28850  0.73226  0.58613  1.0000
  C   C15       1.0  0.28850  0.76774  0.08613  1.0000
  C   C16       1.0  0.71150  0.26774  0.41387  1.0000
  C   C17       1.0  0.38240  0.12791  0.50922  1.0000
  C   C18       1.0  0.61760  0.62791  0.99078  1.0000
  C   C19       1.0  0.61760  0.87209  0.49078  1.0000
  C   C20       1.0  0.38240  0.37209  0.00922  1.0000
  C   C21       1.0  0.42570  0.00571  0.80051  1.0000
  C   C22       1.0  0.57430  0.50571  0.69949  1.0000
  C   C23       1.0  0.57430  0.99429  0.19949  1.0000
  C   C24       1.0  0.42570  0.49429  0.30051  1.0000
  C   C25       1.0  0.40780  0.22089  0.47670  1.0000
  C   C26       1.0  0.59220  0.72089  0.02330  1.0000
  C   C27       1.0  0.59220  0.77911  0.52330  1.0000
  C   C28       1.0  0.40780  0.27911  0.97670  1.0000
  C   C29       1.0  0.82560  0.28416  0.93816  1.0000
  C   C30       1.0  0.17440  0.78416  0.56184  1.0000
  C   C31       1.0  0.17440  0.71584  0.06184  1.0000
  C   C32       1.0  0.82560  0.21584  0.43816  1.0000
  C   C33       1.0  0.35720  0.96000  0.57690  1.0000
  C   C34       1.0  0.64280  0.46000  0.92310  1.0000
  C   C35       1.0  0.64280  0.04000  0.42310  1.0000
  C   C36       1.0  0.35720  0.54000  0.07690  1.0000
  H   H5        1.0  0.35180  0.90250  0.60250  1.0000
  H   H6        1.0  0.64820  0.40250  0.89750  1.0000
  H   H7        1.0  0.64820  0.09750  0.39750  1.0000
  H   H8        1.0  0.35180  0.59750  0.10250  1.0000
  C   C37       1.0  0.89640  0.29103  0.05380  1.0000
  C   C38       1.0  0.10360  0.79103  0.44620  1.0000
  C   C39       1.0  0.10360  0.70897  0.94620  1.0000
  C   C40       1.0  0.89640  0.20897  0.55380  1.0000
  H   H9        1.0  0.87710  0.26130  0.12170  1.0000
  H   H10       1.0  0.12290  0.76130  0.37830  1.0000
  H   H11       1.0  0.12290  0.73870  0.87830  1.0000
  H   H12       1.0  0.87710  0.23870  0.62170  1.0000
  O   O29       1.0  0.06170  0.46305  0.73870  1.0000
  O   O30       1.0  0.93830  0.96305  0.76130  1.0000
  O   O31       1.0  0.93830  0.53695  0.26130  1.0000
  O   O32       1.0  0.06170  0.03695  0.23870  1.0000
  C   C41       1.0  0.02260  0.38586  0.96520  1.0000
  C   C42       1.0  0.97740  0.88586  0.53480  1.0000
  C   C43       1.0  0.97740  0.61414  0.03480  1.0000
  C   C44       1.0  0.02260  0.11414  0.46520  1.0000
  H   H13       1.0  0.09010  0.42010  0.97180  1.0000
  H   H14       1.0  0.90990  0.92010  0.52820  1.0000
  H   H15       1.0  0.90990  0.57990  0.02820  1.0000
  H   H16       1.0  0.09010  0.07990  0.47180  1.0000
  C   C45       1.0  0.96520  0.42560  0.73760  1.0000
  C   C46       1.0  0.03480  0.92560  0.76240  1.0000
  C   C47       1.0  0.03480  0.57440  0.26240  1.0000
  C   C48       1.0  0.96520  0.07440  0.23760  1.0000
  C   C49       1.0  0.32850  0.98165  0.45290  1.0000
  C   C50       1.0  0.67150  0.48165  0.04710  1.0000
  C   C51       1.0  0.67150  0.01835  0.54710  1.0000
  C   C52       1.0  0.32850  0.51835  0.95290  1.0000
  H   H17       1.0  0.30090  0.93950  0.39380  1.0000
  H   H18       1.0  0.69910  0.43950  0.10620  1.0000
  H   H19       1.0  0.69910  0.06050  0.60620  1.0000
  H   H20       1.0  0.30090  0.56050  0.89380  1.0000
  C   C53       1.0  0.99520  0.34225  0.06680  1.0000
  C   C54       1.0  0.00480  0.84225  0.43320  1.0000
  C   C55       1.0  0.00480  0.65775  0.93320  1.0000
  C   C56       1.0  0.99520  0.15775  0.56680  1.0000
  H   H21       1.0  0.04370  0.34760  0.14390  1.0000
  H   H22       1.0  0.95630  0.84760  0.35610  1.0000
  H   H23       1.0  0.95630  0.65240  0.85610  1.0000
  H   H24       1.0  0.04370  0.15240  0.64390  1.0000
  Li  Li1       1.0  0.53120  0.13090  0.01000  1.0000
  Li  Li2       1.0  0.46880  0.63090  0.49000  1.0000
  Li  Li3       1.0  0.46880  0.86910  0.99000  1.0000
  Li  Li4       1.0  0.53120  0.36910  0.51000  1.0000
  Li  Li5       1.0  0.27170  0.84610  0.82150  1.0000
  Li  Li6       1.0  0.72830  0.34610  0.67850  1.0000
  Li  Li7       1.0  0.72830  0.15390  0.17850  1.0000
  Li  Li8       1.0  0.27170  0.65390  0.32150  1.0000
  Li  Li9       1.0  0.48070  0.21010  0.74530  1.0000
  Li  Li10      1.0  0.51930  0.71010  0.75470  1.0000
  Li  Li11      1.0  0.51930  0.78990  0.25470  1.0000
  Li  Li12      1.0  0.48070  0.28990  0.24530  1.0000
