data_image0
_chemical_formula_structural       Zn24C32H16C32H16C32H16C32O112P16
_chemical_formula_sum              "Zn24 C128 H48 O112 P16"
_cell_length_a       18.31
_cell_length_b       18.31
_cell_length_c       23.222
_cell_angle_alpha    90
_cell_angle_beta     90
_cell_angle_gamma    90

_space_group_name_H-M_alt    "P 1"
_space_group_IT_number       1

loop_
  _space_group_symop_operation_xyz
  'x, y, z'

loop_
  _atom_site_type_symbol
  _atom_site_label
  _atom_site_symmetry_multiplicity
  _atom_site_fract_x
  _atom_site_fract_y
  _atom_site_fract_z
  _atom_site_occupancy
  Zn  Zn1       1.0  0.28051  0.22488  0.22233  1.0000
  Zn  Zn2       1.0  0.22488  0.71949  0.77767  1.0000
  Zn  Zn3       1.0  0.71949  0.77512  0.22233  1.0000
  Zn  Zn4       1.0  0.77512  0.28051  0.77767  1.0000
  Zn  Zn5       1.0  0.28051  0.27512  0.02767  1.0000
  Zn  Zn6       1.0  0.27512  0.71949  0.97233  1.0000
  Zn  Zn7       1.0  0.71949  0.72488  0.02767  1.0000
  Zn  Zn8       1.0  0.72488  0.28051  0.97233  1.0000
  Zn  Zn9       1.0  0.78051  0.72488  0.72233  1.0000
  Zn  Zn10      1.0  0.72488  0.21949  0.27767  1.0000
  Zn  Zn11      1.0  0.21949  0.27512  0.72233  1.0000
  Zn  Zn12      1.0  0.27512  0.78051  0.27767  1.0000
  Zn  Zn13      1.0  0.78051  0.77512  0.52767  1.0000
  Zn  Zn14      1.0  0.77512  0.21949  0.47233  1.0000
  Zn  Zn15      1.0  0.21949  0.22488  0.52767  1.0000
  Zn  Zn16      1.0  0.22488  0.78051  0.47233  1.0000
  Zn  Zn17      1.0  0.13207  0.25000  0.12500  1.0000
  Zn  Zn18      1.0  0.25000  0.86793  0.87500  1.0000
  Zn  Zn19      1.0  0.86793  0.75000  0.12500  1.0000
  Zn  Zn20      1.0  0.75000  0.13207  0.87500  1.0000
  Zn  Zn21      1.0  0.63207  0.75000  0.62500  1.0000
  Zn  Zn22      1.0  0.75000  0.36793  0.37500  1.0000
  Zn  Zn23      1.0  0.36793  0.25000  0.62500  1.0000
  Zn  Zn24      1.0  0.25000  0.63207  0.37500  1.0000
  C   C1        1.0  0.27270  0.45390  0.15090  1.0000
  C   C2        1.0  0.45390  0.72730  0.84910  1.0000
  C   C3        1.0  0.72730  0.54610  0.15090  1.0000
  C   C4        1.0  0.54610  0.27270  0.84910  1.0000
  C   C5        1.0  0.27270  0.04610  0.09910  1.0000
  C   C6        1.0  0.04610  0.72730  0.90090  1.0000
  C   C7        1.0  0.72730  0.95390  0.09910  1.0000
  C   C8        1.0  0.95390  0.27270  0.90090  1.0000
  C   C9        1.0  0.77270  0.95390  0.65090  1.0000
  C   C10       1.0  0.95390  0.22730  0.34910  1.0000
  C   C11       1.0  0.22730  0.04610  0.65090  1.0000
  C   C12       1.0  0.04610  0.77270  0.34910  1.0000
  C   C13       1.0  0.77270  0.54610  0.59910  1.0000
  C   C14       1.0  0.54610  0.22730  0.40090  1.0000
  C   C15       1.0  0.22730  0.45390  0.59910  1.0000
  C   C16       1.0  0.45390  0.77270  0.40090  1.0000
  C   C17       1.0  0.27870  0.49440  0.10000  1.0000
  C   C18       1.0  0.49440  0.72130  0.90000  1.0000
  C   C19       1.0  0.72130  0.50560  0.10000  1.0000
  C   C20       1.0  0.50560  0.27870  0.90000  1.0000
  C   C21       1.0  0.27870  0.00560  0.15000  1.0000
  C   C22       1.0  0.00560  0.72130  0.85000  1.0000
  C   C23       1.0  0.72130  0.99440  0.15000  1.0000
  C   C24       1.0  0.99440  0.27870  0.85000  1.0000
  C   C25       1.0  0.77870  0.99440  0.60000  1.0000
  C   C26       1.0  0.99440  0.22130  0.40000  1.0000
  C   C27       1.0  0.22130  0.00560  0.60000  1.0000
  C   C28       1.0  0.00560  0.77870  0.40000  1.0000
  C   C29       1.0  0.77870  0.50560  0.65000  1.0000
  C   C30       1.0  0.50560  0.22130  0.35000  1.0000
  C   C31       1.0  0.22130  0.49440  0.65000  1.0000
  C   C32       1.0  0.49440  0.77870  0.35000  1.0000
  H   H1        1.0  0.27800  0.47040  0.06480  1.0000
  H   H2        1.0  0.47040  0.72200  0.93520  1.0000
  H   H3        1.0  0.72200  0.52960  0.06480  1.0000
  H   H4        1.0  0.52960  0.27800  0.93520  1.0000
  H   H5        1.0  0.27800  0.02960  0.18520  1.0000
  H   H6        1.0  0.02960  0.72200  0.81480  1.0000
  H   H7        1.0  0.72200  0.97040  0.18520  1.0000
  H   H8        1.0  0.97040  0.27800  0.81480  1.0000
  H   H9        1.0  0.77800  0.97040  0.56480  1.0000
  H   H10       1.0  0.97040  0.22200  0.43520  1.0000
  H   H11       1.0  0.22200  0.02960  0.56480  1.0000
  H   H12       1.0  0.02960  0.77800  0.43520  1.0000
  H   H13       1.0  0.77800  0.52960  0.68520  1.0000
  H   H14       1.0  0.52960  0.22200  0.31480  1.0000
  H   H15       1.0  0.22200  0.47040  0.68520  1.0000
  H   H16       1.0  0.47040  0.77800  0.31480  1.0000
  C   C33       1.0  0.28580  0.57150  0.10140  1.0000
  C   C34       1.0  0.57150  0.71420  0.89860  1.0000
  C   C35       1.0  0.71420  0.42850  0.10140  1.0000
  C   C36       1.0  0.42850  0.28580  0.89860  1.0000
  C   C37       1.0  0.28580  0.92850  0.14860  1.0000
  C   C38       1.0  0.92850  0.71420  0.85140  1.0000
  C   C39       1.0  0.71420  0.07150  0.14860  1.0000
  C   C40       1.0  0.07150  0.28580  0.85140  1.0000
  C   C41       1.0  0.78580  0.07150  0.60140  1.0000
  C   C42       1.0  0.07150  0.21420  0.39860  1.0000
  C   C43       1.0  0.21420  0.92850  0.60140  1.0000
  C   C44       1.0  0.92850  0.78580  0.39860  1.0000
  C   C45       1.0  0.78580  0.42850  0.64860  1.0000
  C   C46       1.0  0.42850  0.21420  0.35140  1.0000
  C   C47       1.0  0.21420  0.57150  0.64860  1.0000
  C   C48       1.0  0.57150  0.78580  0.35140  1.0000
  C   C49       1.0  0.28670  0.60720  0.15330  1.0000
  C   C50       1.0  0.60720  0.71330  0.84670  1.0000
  C   C51       1.0  0.71330  0.39280  0.15330  1.0000
  C   C52       1.0  0.39280  0.28670  0.84670  1.0000
  C   C53       1.0  0.28670  0.89280  0.09670  1.0000
  C   C54       1.0  0.89280  0.71330  0.90330  1.0000
  C   C55       1.0  0.71330  0.10720  0.09670  1.0000
  C   C56       1.0  0.10720  0.28670  0.90330  1.0000
  C   C57       1.0  0.78670  0.10720  0.65330  1.0000
  C   C58       1.0  0.10720  0.21330  0.34670  1.0000
  C   C59       1.0  0.21330  0.89280  0.65330  1.0000
  C   C60       1.0  0.89280  0.78670  0.34670  1.0000
  C   C61       1.0  0.78670  0.39280  0.59670  1.0000
  C   C62       1.0  0.39280  0.21330  0.40330  1.0000
  C   C63       1.0  0.21330  0.60720  0.59670  1.0000
  C   C64       1.0  0.60720  0.78670  0.40330  1.0000
  H   H17       1.0  0.29200  0.65760  0.15440  1.0000
  H   H18       1.0  0.65760  0.70800  0.84560  1.0000
  H   H19       1.0  0.70800  0.34240  0.15440  1.0000
  H   H20       1.0  0.34240  0.29200  0.84560  1.0000
  H   H21       1.0  0.29200  0.84240  0.09560  1.0000
  H   H22       1.0  0.84240  0.70800  0.90440  1.0000
  H   H23       1.0  0.70800  0.15760  0.09560  1.0000
  H   H24       1.0  0.15760  0.29200  0.90440  1.0000
  H   H25       1.0  0.79200  0.15760  0.65440  1.0000
  H   H26       1.0  0.15760  0.20800  0.34560  1.0000
  H   H27       1.0  0.20800  0.84240  0.65440  1.0000
  H   H28       1.0  0.84240  0.79200  0.34560  1.0000
  H   H29       1.0  0.79200  0.34240  0.59560  1.0000
  H   H30       1.0  0.34240  0.20800  0.40440  1.0000
  H   H31       1.0  0.20800  0.65760  0.59560  1.0000
  H   H32       1.0  0.65760  0.79200  0.40440  1.0000
  C   C65       1.0  0.27980  0.56800  0.20390  1.0000
  C   C66       1.0  0.56800  0.72020  0.79610  1.0000
  C   C67       1.0  0.72020  0.43200  0.20390  1.0000
  C   C68       1.0  0.43200  0.27980  0.79610  1.0000
  C   C69       1.0  0.27980  0.93200  0.04610  1.0000
  C   C70       1.0  0.93200  0.72020  0.95390  1.0000
  C   C71       1.0  0.72020  0.06800  0.04610  1.0000
  C   C72       1.0  0.06800  0.27980  0.95390  1.0000
  C   C73       1.0  0.77980  0.06800  0.70390  1.0000
  C   C74       1.0  0.06800  0.22020  0.29610  1.0000
  C   C75       1.0  0.22020  0.93200  0.70390  1.0000
  C   C76       1.0  0.93200  0.77980  0.29610  1.0000
  C   C77       1.0  0.77980  0.43200  0.54610  1.0000
  C   C78       1.0  0.43200  0.22020  0.45390  1.0000
  C   C79       1.0  0.22020  0.56800  0.54610  1.0000
  C   C80       1.0  0.56800  0.77980  0.45390  1.0000
  C   C81       1.0  0.27330  0.49090  0.20260  1.0000
  C   C82       1.0  0.49090  0.72670  0.79740  1.0000
  C   C83       1.0  0.72670  0.50910  0.20260  1.0000
  C   C84       1.0  0.50910  0.27330  0.79740  1.0000
  C   C85       1.0  0.27330  0.00910  0.04740  1.0000
  C   C86       1.0  0.00910  0.72670  0.95260  1.0000
  C   C87       1.0  0.72670  0.99090  0.04740  1.0000
  C   C88       1.0  0.99090  0.27330  0.95260  1.0000
  C   C89       1.0  0.77330  0.99090  0.70260  1.0000
  C   C90       1.0  0.99090  0.22670  0.29740  1.0000
  C   C91       1.0  0.22670  0.00910  0.70260  1.0000
  C   C92       1.0  0.00910  0.77330  0.29740  1.0000
  C   C93       1.0  0.77330  0.50910  0.54740  1.0000
  C   C94       1.0  0.50910  0.22670  0.45260  1.0000
  C   C95       1.0  0.22670  0.49090  0.54740  1.0000
  C   C96       1.0  0.49090  0.77330  0.45260  1.0000
  H   H33       1.0  0.26940  0.46510  0.23700  1.0000
  H   H34       1.0  0.46510  0.73060  0.76300  1.0000
  H   H35       1.0  0.73060  0.53490  0.23700  1.0000
  H   H36       1.0  0.53490  0.26940  0.76300  1.0000
  H   H37       1.0  0.26940  0.03490  0.01300  1.0000
  H   H38       1.0  0.03490  0.73060  0.98700  1.0000
  H   H39       1.0  0.73060  0.96510  0.01300  1.0000
  H   H40       1.0  0.96510  0.26940  0.98700  1.0000
  H   H41       1.0  0.76940  0.96510  0.73700  1.0000
  H   H42       1.0  0.96510  0.23060  0.26300  1.0000
  H   H43       1.0  0.23060  0.03490  0.73700  1.0000
  H   H44       1.0  0.03490  0.76940  0.26300  1.0000
  H   H45       1.0  0.76940  0.53490  0.51300  1.0000
  H   H46       1.0  0.53490  0.23060  0.48700  1.0000
  H   H47       1.0  0.23060  0.46510  0.51300  1.0000
  H   H48       1.0  0.46510  0.76940  0.48700  1.0000
  C   C97       1.0  0.28840  0.61210  0.04500  1.0000
  C   C98       1.0  0.61210  0.71160  0.95500  1.0000
  C   C99       1.0  0.71160  0.38790  0.04500  1.0000
  C   C100      1.0  0.38790  0.28840  0.95500  1.0000
  C   C101      1.0  0.28840  0.88790  0.20500  1.0000
  C   C102      1.0  0.88790  0.71160  0.79500  1.0000
  C   C103      1.0  0.71160  0.11210  0.20500  1.0000
  C   C104      1.0  0.11210  0.28840  0.79500  1.0000
  C   C105      1.0  0.78840  0.11210  0.54500  1.0000
  C   C106      1.0  0.11210  0.21160  0.45500  1.0000
  C   C107      1.0  0.21160  0.88790  0.54500  1.0000
  C   C108      1.0  0.88790  0.78840  0.45500  1.0000
  C   C109      1.0  0.78840  0.38790  0.70500  1.0000
  C   C110      1.0  0.38790  0.21160  0.29500  1.0000
  C   C111      1.0  0.21160  0.61210  0.70500  1.0000
  C   C112      1.0  0.61210  0.78840  0.29500  1.0000
  C   C113      1.0  0.27610  0.60880  0.26040  1.0000
  C   C114      1.0  0.60880  0.72390  0.73960  1.0000
  C   C115      1.0  0.72390  0.39120  0.26040  1.0000
  C   C116      1.0  0.39120  0.27610  0.73960  1.0000
  C   C117      1.0  0.27610  0.89120  0.98960  1.0000
  C   C118      1.0  0.89120  0.72390  0.01040  1.0000
  C   C119      1.0  0.72390  0.10880  0.98960  1.0000
  C   C120      1.0  0.10880  0.27610  0.01040  1.0000
  C   C121      1.0  0.77610  0.10880  0.76040  1.0000
  C   C122      1.0  0.10880  0.22390  0.23960  1.0000
  C   C123      1.0  0.22390  0.89120  0.76040  1.0000
  C   C124      1.0  0.89120  0.77610  0.23960  1.0000
  C   C125      1.0  0.77610  0.39120  0.48960  1.0000
  C   C126      1.0  0.39120  0.22390  0.51040  1.0000
  C   C127      1.0  0.22390  0.60880  0.48960  1.0000
  C   C128      1.0  0.60880  0.77610  0.51040  1.0000
  O   O1        1.0  0.29430  0.32690  0.20100  1.0000
  O   O2        1.0  0.32690  0.70570  0.79900  1.0000
  O   O3        1.0  0.70570  0.67310  0.20100  1.0000
  O   O4        1.0  0.67310  0.29430  0.79900  1.0000
  O   O5        1.0  0.29430  0.17310  0.04900  1.0000
  O   O6        1.0  0.17310  0.70570  0.95100  1.0000
  O   O7        1.0  0.70570  0.82690  0.04900  1.0000
  O   O8        1.0  0.82690  0.29430  0.95100  1.0000
  O   O9        1.0  0.79430  0.82690  0.70100  1.0000
  O   O10       1.0  0.82690  0.20570  0.29900  1.0000
  O   O11       1.0  0.20570  0.17310  0.70100  1.0000
  O   O12       1.0  0.17310  0.79430  0.29900  1.0000
  O   O13       1.0  0.79430  0.67310  0.54900  1.0000
  O   O14       1.0  0.67310  0.20570  0.45100  1.0000
  O   O15       1.0  0.20570  0.32690  0.54900  1.0000
  O   O16       1.0  0.32690  0.79430  0.45100  1.0000
  O   O17       1.0  0.18190  0.34200  0.13970  1.0000
  O   O18       1.0  0.34200  0.81810  0.86030  1.0000
  O   O19       1.0  0.81810  0.65800  0.13970  1.0000
  O   O20       1.0  0.65800  0.18190  0.86030  1.0000
  O   O21       1.0  0.18190  0.15800  0.11030  1.0000
  O   O22       1.0  0.15800  0.81810  0.88970  1.0000
  O   O23       1.0  0.81810  0.84200  0.11030  1.0000
  O   O24       1.0  0.84200  0.18190  0.88970  1.0000
  O   O25       1.0  0.68190  0.84200  0.63970  1.0000
  O   O26       1.0  0.84200  0.31810  0.36030  1.0000
  O   O27       1.0  0.31810  0.15800  0.63970  1.0000
  O   O28       1.0  0.15800  0.68190  0.36030  1.0000
  O   O29       1.0  0.68190  0.65800  0.61030  1.0000
  O   O30       1.0  0.65800  0.31810  0.38970  1.0000
  O   O31       1.0  0.31810  0.34200  0.61030  1.0000
  O   O32       1.0  0.34200  0.68190  0.38970  1.0000
  O   O33       1.0  0.30520  0.33360  0.09320  1.0000
  O   O34       1.0  0.33360  0.69480  0.90680  1.0000
  O   O35       1.0  0.69480  0.66640  0.09320  1.0000
  O   O36       1.0  0.66640  0.30520  0.90680  1.0000
  O   O37       1.0  0.30520  0.16640  0.15680  1.0000
  O   O38       1.0  0.16640  0.69480  0.84320  1.0000
  O   O39       1.0  0.69480  0.83360  0.15680  1.0000
  O   O40       1.0  0.83360  0.30520  0.84320  1.0000
  O   O41       1.0  0.80520  0.83360  0.59320  1.0000
  O   O42       1.0  0.83360  0.19480  0.40680  1.0000
  O   O43       1.0  0.19480  0.16640  0.59320  1.0000
  O   O44       1.0  0.16640  0.80520  0.40680  1.0000
  O   O45       1.0  0.80520  0.66640  0.65680  1.0000
  O   O46       1.0  0.66640  0.19480  0.34320  1.0000
  O   O47       1.0  0.19480  0.33360  0.65680  1.0000
  O   O48       1.0  0.33360  0.80520  0.34320  1.0000
  O   O49       1.0  0.29390  0.67960  0.04810  1.0000
  O   O50       1.0  0.67960  0.70610  0.95190  1.0000
  O   O51       1.0  0.70610  0.32040  0.04810  1.0000
  O   O52       1.0  0.32040  0.29390  0.95190  1.0000
  O   O53       1.0  0.29390  0.82040  0.20190  1.0000
  O   O54       1.0  0.82040  0.70610  0.79810  1.0000
  O   O55       1.0  0.70610  0.17960  0.20190  1.0000
  O   O56       1.0  0.17960  0.29390  0.79810  1.0000
  O   O57       1.0  0.79390  0.17960  0.54810  1.0000
  O   O58       1.0  0.17960  0.20610  0.45190  1.0000
  O   O59       1.0  0.20610  0.82040  0.54810  1.0000
  O   O60       1.0  0.82040  0.79390  0.45190  1.0000
  O   O61       1.0  0.79390  0.32040  0.70190  1.0000
  O   O62       1.0  0.32040  0.20610  0.29810  1.0000
  O   O63       1.0  0.20610  0.67960  0.70190  1.0000
  O   O64       1.0  0.67960  0.79390  0.29810  1.0000
  O   O65       1.0  0.28100  0.57840  0.99970  1.0000
  O   O66       1.0  0.57840  0.71900  0.00030  1.0000
  O   O67       1.0  0.71900  0.42160  0.99970  1.0000
  O   O68       1.0  0.42160  0.28100  0.00030  1.0000
  O   O69       1.0  0.28100  0.92160  0.25030  1.0000
  O   O70       1.0  0.92160  0.71900  0.74970  1.0000
  O   O71       1.0  0.71900  0.07840  0.25030  1.0000
  O   O72       1.0  0.07840  0.28100  0.74970  1.0000
  O   O73       1.0  0.78100  0.07840  0.49970  1.0000
  O   O74       1.0  0.07840  0.21900  0.50030  1.0000
  O   O75       1.0  0.21900  0.92160  0.49970  1.0000
  O   O76       1.0  0.92160  0.78100  0.50030  1.0000
  O   O77       1.0  0.78100  0.42160  0.75030  1.0000
  O   O78       1.0  0.42160  0.21900  0.24970  1.0000
  O   O79       1.0  0.21900  0.57840  0.75030  1.0000
  O   O80       1.0  0.57840  0.78100  0.24970  1.0000
  O   O81       1.0  0.28830  0.67520  0.25900  1.0000
  O   O82       1.0  0.67520  0.71170  0.74100  1.0000
  O   O83       1.0  0.71170  0.32480  0.25900  1.0000
  O   O84       1.0  0.32480  0.28830  0.74100  1.0000
  O   O85       1.0  0.28830  0.82480  0.99100  1.0000
  O   O86       1.0  0.82480  0.71170  0.00900  1.0000
  O   O87       1.0  0.71170  0.17520  0.99100  1.0000
  O   O88       1.0  0.17520  0.28830  0.00900  1.0000
  O   O89       1.0  0.78830  0.17520  0.75900  1.0000
  O   O90       1.0  0.17520  0.21170  0.24100  1.0000
  O   O91       1.0  0.21170  0.82480  0.75900  1.0000
  O   O92       1.0  0.82480  0.78830  0.24100  1.0000
  O   O93       1.0  0.78830  0.32480  0.49100  1.0000
  O   O94       1.0  0.32480  0.21170  0.50900  1.0000
  O   O95       1.0  0.21170  0.67520  0.49100  1.0000
  O   O96       1.0  0.67520  0.78830  0.50900  1.0000
  O   O97       1.0  0.26460  0.57150  0.30577  1.0000
  O   O98       1.0  0.57150  0.73540  0.69423  1.0000
  O   O99       1.0  0.73540  0.42850  0.30577  1.0000
  O   O100      1.0  0.42850  0.26460  0.69423  1.0000
  O   O101      1.0  0.26460  0.92850  0.94423  1.0000
  O   O102      1.0  0.92850  0.73540  0.05577  1.0000
  O   O103      1.0  0.73540  0.07150  0.94423  1.0000
  O   O104      1.0  0.07150  0.26460  0.05577  1.0000
  O   O105      1.0  0.76460  0.07150  0.80577  1.0000
  O   O106      1.0  0.07150  0.23540  0.19423  1.0000
  O   O107      1.0  0.23540  0.92850  0.80577  1.0000
  O   O108      1.0  0.92850  0.76460  0.19423  1.0000
  O   O109      1.0  0.76460  0.42850  0.44423  1.0000
  O   O110      1.0  0.42850  0.23540  0.55577  1.0000
  O   O111      1.0  0.23540  0.57150  0.44423  1.0000
  O   O112      1.0  0.57150  0.76460  0.55577  1.0000
  P   P1        1.0  0.26261  0.35775  0.14601  1.0000
  P   P2        1.0  0.35775  0.73739  0.85399  1.0000
  P   P3        1.0  0.73739  0.64225  0.14601  1.0000
  P   P4        1.0  0.64225  0.26261  0.85399  1.0000
  P   P5        1.0  0.26261  0.14225  0.10399  1.0000
  P   P6        1.0  0.14225  0.73739  0.89601  1.0000
  P   P7        1.0  0.73739  0.85775  0.10399  1.0000
  P   P8        1.0  0.85775  0.26261  0.89601  1.0000
  P   P9        1.0  0.76261  0.85775  0.64601  1.0000
  P   P10       1.0  0.85775  0.23739  0.35399  1.0000
  P   P11       1.0  0.23739  0.14225  0.64601  1.0000
  P   P12       1.0  0.14225  0.76261  0.35399  1.0000
  P   P13       1.0  0.76261  0.64225  0.60399  1.0000
  P   P14       1.0  0.64225  0.23739  0.39601  1.0000
  P   P15       1.0  0.23739  0.35775  0.60399  1.0000
  P   P16       1.0  0.35775  0.76261  0.39601  1.0000
