data_image0
_chemical_formula_structural       Zn4S16C48H32
_chemical_formula_sum              "Zn4 S16 C48 H32"
_cell_length_a       11.6558
_cell_length_b       15.2451
_cell_length_c       14.2187
_cell_angle_alpha    90
_cell_angle_beta     90.6517
_cell_angle_gamma    90

_space_group_name_H-M_alt    "P 1"
_space_group_IT_number       1

loop_
  _space_group_symop_operation_xyz
  'x, y, z'

loop_
  _atom_site_type_symbol
  _atom_site_label
  _atom_site_symmetry_multiplicity
  _atom_site_fract_x
  _atom_site_fract_y
  _atom_site_fract_z
  _atom_site_occupancy
  Zn  Zn1       1.0  0.50000  0.23640  0.25000  1.0000
  Zn  Zn2       1.0  0.00000  0.73640  0.25000  1.0000
  Zn  Zn3       1.0  0.50000  0.76360  0.75000  1.0000
  Zn  Zn4       1.0  0.00000  0.26360  0.75000  1.0000
  S   S1        1.0  0.39281  0.14302  0.14640  1.0000
  S   S2        1.0  0.89281  0.64302  0.14640  1.0000
  S   S3        1.0  0.60719  0.14302  0.35360  1.0000
  S   S4        1.0  0.10719  0.64302  0.35360  1.0000
  S   S5        1.0  0.60719  0.85698  0.85360  1.0000
  S   S6        1.0  0.10719  0.35698  0.85360  1.0000
  S   S7        1.0  0.39281  0.85698  0.64640  1.0000
  S   S8        1.0  0.89281  0.35698  0.64640  1.0000
  S   S9        1.0  0.38877  0.32897  0.33083  1.0000
  S   S10       1.0  0.88877  0.82897  0.33083  1.0000
  S   S11       1.0  0.61123  0.32897  0.16917  1.0000
  S   S12       1.0  0.11123  0.82897  0.16917  1.0000
  S   S13       1.0  0.61123  0.67103  0.66917  1.0000
  S   S14       1.0  0.11123  0.17103  0.66917  1.0000
  S   S15       1.0  0.38877  0.67103  0.83083  1.0000
  S   S16       1.0  0.88877  0.17103  0.83083  1.0000
  C   C1        1.0  0.31261  0.20310  0.06418  1.0000
  C   C2        1.0  0.81261  0.70310  0.06418  1.0000
  C   C3        1.0  0.68739  0.20310  0.43582  1.0000
  C   C4        1.0  0.18739  0.70310  0.43582  1.0000
  C   C5        1.0  0.68739  0.79690  0.93582  1.0000
  C   C6        1.0  0.18739  0.29690  0.93582  1.0000
  C   C7        1.0  0.31261  0.79690  0.56418  1.0000
  C   C8        1.0  0.81261  0.29690  0.56418  1.0000
  C   C9        1.0  0.25653  0.16092  0.99261  1.0000
  C   C10       1.0  0.75653  0.66092  0.99261  1.0000
  C   C11       1.0  0.74347  0.16092  0.50739  1.0000
  C   C12       1.0  0.24347  0.66092  0.50739  1.0000
  C   C13       1.0  0.74347  0.83908  0.00739  1.0000
  C   C14       1.0  0.24347  0.33908  0.00739  1.0000
  C   C15       1.0  0.25653  0.83908  0.49261  1.0000
  C   C16       1.0  0.75653  0.33908  0.49261  1.0000
  C   C17       1.0  0.30608  0.29218  0.07157  1.0000
  C   C18       1.0  0.80608  0.79218  0.07157  1.0000
  C   C19       1.0  0.69392  0.29218  0.42843  1.0000
  C   C20       1.0  0.19392  0.79218  0.42843  1.0000
  C   C21       1.0  0.69392  0.70782  0.92843  1.0000
  C   C22       1.0  0.19392  0.20782  0.92843  1.0000
  C   C23       1.0  0.30608  0.70782  0.57157  1.0000
  C   C24       1.0  0.80608  0.20782  0.57157  1.0000
  C   C25       1.0  0.20952  0.32210  0.45348  1.0000
  C   C26       1.0  0.70952  0.82210  0.45348  1.0000
  C   C27       1.0  0.79048  0.32210  0.04652  1.0000
  C   C28       1.0  0.29048  0.82210  0.04652  1.0000
  C   C29       1.0  0.79048  0.67790  0.54652  1.0000
  C   C30       1.0  0.29048  0.17790  0.54652  1.0000
  C   C31       1.0  0.20952  0.67790  0.95348  1.0000
  C   C32       1.0  0.70952  0.17790  0.95348  1.0000
  C   C33       1.0  0.35053  0.21207  0.47332  1.0000
  C   C34       1.0  0.85053  0.71207  0.47332  1.0000
  C   C35       1.0  0.64947  0.21207  0.02668  1.0000
  C   C36       1.0  0.14947  0.71207  0.02668  1.0000
  C   C37       1.0  0.64947  0.78793  0.52668  1.0000
  C   C38       1.0  0.14947  0.28793  0.52668  1.0000
  C   C39       1.0  0.35053  0.78793  0.97332  1.0000
  C   C40       1.0  0.85053  0.28793  0.97332  1.0000
  C   C41       1.0  0.31005  0.28417  0.42679  1.0000
  C   C42       1.0  0.81005  0.78417  0.42679  1.0000
  C   C43       1.0  0.68995  0.28417  0.07321  1.0000
  C   C44       1.0  0.18995  0.78417  0.07321  1.0000
  C   C45       1.0  0.68995  0.71583  0.57321  1.0000
  C   C46       1.0  0.18995  0.21583  0.57321  1.0000
  C   C47       1.0  0.31005  0.71583  0.92679  1.0000
  C   C48       1.0  0.81005  0.21583  0.92679  1.0000
  H   H1        1.0  0.26131  0.09562  0.98719  1.0000
  H   H2        1.0  0.76131  0.59562  0.98719  1.0000
  H   H3        1.0  0.73869  0.09562  0.51281  1.0000
  H   H4        1.0  0.23869  0.59562  0.51281  1.0000
  H   H5        1.0  0.73869  0.90438  0.01281  1.0000
  H   H6        1.0  0.23869  0.40438  0.01281  1.0000
  H   H7        1.0  0.26131  0.90438  0.48719  1.0000
  H   H8        1.0  0.76131  0.40438  0.48719  1.0000
  H   H9        1.0  0.34718  0.32310  0.12403  1.0000
  H   H10       1.0  0.84718  0.82310  0.12403  1.0000
  H   H11       1.0  0.65282  0.32310  0.37597  1.0000
  H   H12       1.0  0.15282  0.82310  0.37597  1.0000
  H   H13       1.0  0.65282  0.67690  0.87597  1.0000
  H   H14       1.0  0.15282  0.17690  0.87597  1.0000
  H   H15       1.0  0.34718  0.67690  0.62403  1.0000
  H   H16       1.0  0.84718  0.17690  0.62403  1.0000
  H   H17       1.0  0.17985  0.37495  0.41938  1.0000
  H   H18       1.0  0.67985  0.87495  0.41938  1.0000
  H   H19       1.0  0.82015  0.37495  0.08062  1.0000
  H   H20       1.0  0.32015  0.87495  0.08062  1.0000
  H   H21       1.0  0.82015  0.62505  0.58062  1.0000
  H   H22       1.0  0.32015  0.12505  0.58062  1.0000
  H   H23       1.0  0.17985  0.62505  0.91938  1.0000
  H   H24       1.0  0.67985  0.12505  0.91938  1.0000
  H   H25       1.0  0.42421  0.18427  0.45376  1.0000
  H   H26       1.0  0.92421  0.68427  0.45376  1.0000
  H   H27       1.0  0.57579  0.18427  0.04624  1.0000
  H   H28       1.0  0.07579  0.68427  0.04624  1.0000
  H   H29       1.0  0.57579  0.81573  0.54624  1.0000
  H   H30       1.0  0.07579  0.31573  0.54624  1.0000
  H   H31       1.0  0.42421  0.81573  0.95376  1.0000
  H   H32       1.0  0.92421  0.31573  0.95376  1.0000
