data_image0
_chemical_formula_structural       Cd4S16C48H32
_chemical_formula_sum              "Cd4 S16 C48 H32"
_cell_length_a       12.0128
_cell_length_b       14.8309
_cell_length_c       14.5756
_cell_angle_alpha    90
_cell_angle_beta     90.2171
_cell_angle_gamma    90

_space_group_name_H-M_alt    "P 1"
_space_group_IT_number       1

loop_
  _space_group_symop_operation_xyz
  'x, y, z'

loop_
  _atom_site_type_symbol
  _atom_site_label
  _atom_site_symmetry_multiplicity
  _atom_site_fract_x
  _atom_site_fract_y
  _atom_site_fract_z
  _atom_site_occupancy
  Cd  Cd1       1.0  0.50000  0.22989  0.25000  1.0000
  Cd  Cd2       1.0  0.00000  0.72989  0.25000  1.0000
  Cd  Cd3       1.0  0.50000  0.77011  0.75000  1.0000
  Cd  Cd4       1.0  0.00000  0.27011  0.75000  1.0000
  S   S1        1.0  0.37490  0.34000  0.33210  1.0000
  S   S2        1.0  0.62510  0.34000  0.16790  1.0000
  S   S3        1.0  0.87490  0.84000  0.33210  1.0000
  S   S4        1.0  0.12510  0.84000  0.16790  1.0000
  S   S5        1.0  0.62510  0.66000  0.66790  1.0000
  S   S6        1.0  0.37490  0.66000  0.83210  1.0000
  S   S7        1.0  0.12510  0.16000  0.66790  1.0000
  S   S8        1.0  0.87490  0.16000  0.83210  1.0000
  S   S9        1.0  0.38880  0.12940  0.14270  1.0000
  S   S10       1.0  0.61120  0.12940  0.35730  1.0000
  S   S11       1.0  0.88880  0.62940  0.14270  1.0000
  S   S12       1.0  0.11120  0.62940  0.35730  1.0000
  S   S13       1.0  0.61120  0.87060  0.85730  1.0000
  S   S14       1.0  0.38880  0.87060  0.64270  1.0000
  S   S15       1.0  0.11120  0.37060  0.85730  1.0000
  S   S16       1.0  0.88880  0.37060  0.64270  1.0000
  C   C1        1.0  0.23814  0.15564  0.00054  1.0000
  C   C2        1.0  0.76186  0.15564  0.49946  1.0000
  C   C3        1.0  0.73814  0.65564  0.00054  1.0000
  C   C4        1.0  0.26186  0.65564  0.49946  1.0000
  C   C5        1.0  0.76186  0.84436  0.99946  1.0000
  C   C6        1.0  0.23814  0.84436  0.50054  1.0000
  C   C7        1.0  0.26186  0.34436  0.99946  1.0000
  C   C8        1.0  0.73814  0.34436  0.50054  1.0000
  C   C9        1.0  0.21268  0.33203  0.46244  1.0000
  C   C10       1.0  0.78732  0.33203  0.03756  1.0000
  C   C11       1.0  0.71268  0.83203  0.46244  1.0000
  C   C12       1.0  0.28732  0.83203  0.03756  1.0000
  C   C13       1.0  0.78732  0.66797  0.53756  1.0000
  C   C14       1.0  0.21268  0.66797  0.96244  1.0000
  C   C15       1.0  0.28732  0.16797  0.53756  1.0000
  C   C16       1.0  0.71268  0.16797  0.96244  1.0000
  C   C17       1.0  0.32639  0.29172  0.05982  1.0000
  C   C18       1.0  0.67361  0.29172  0.44018  1.0000
  C   C19       1.0  0.82639  0.79172  0.05982  1.0000
  C   C20       1.0  0.17361  0.79172  0.44018  1.0000
  C   C21       1.0  0.67361  0.70828  0.94018  1.0000
  C   C22       1.0  0.32639  0.70828  0.55982  1.0000
  C   C23       1.0  0.17361  0.20828  0.94018  1.0000
  C   C24       1.0  0.82639  0.20828  0.55982  1.0000
  C   C25       1.0  0.34407  0.20687  0.46317  1.0000
  C   C26       1.0  0.65593  0.20687  0.03683  1.0000
  C   C27       1.0  0.84407  0.70687  0.46317  1.0000
  C   C28       1.0  0.15593  0.70687  0.03683  1.0000
  C   C29       1.0  0.65593  0.79313  0.53683  1.0000
  C   C30       1.0  0.34407  0.79313  0.96317  1.0000
  C   C31       1.0  0.15593  0.29313  0.53683  1.0000
  C   C32       1.0  0.84407  0.29313  0.96317  1.0000
  C   C33       1.0  0.31453  0.19736  0.06036  1.0000
  C   C34       1.0  0.68547  0.19736  0.43964  1.0000
  C   C35       1.0  0.81453  0.69736  0.06036  1.0000
  C   C36       1.0  0.18547  0.69736  0.43964  1.0000
  C   C37       1.0  0.68547  0.80264  0.93964  1.0000
  C   C38       1.0  0.31453  0.80264  0.56036  1.0000
  C   C39       1.0  0.18547  0.30264  0.93964  1.0000
  C   C40       1.0  0.81453  0.30264  0.56036  1.0000
  C   C41       1.0  0.30675  0.28890  0.42560  1.0000
  C   C42       1.0  0.69325  0.28890  0.07440  1.0000
  C   C43       1.0  0.80675  0.78890  0.42560  1.0000
  C   C44       1.0  0.19325  0.78890  0.07440  1.0000
  C   C45       1.0  0.69325  0.71110  0.57440  1.0000
  C   C46       1.0  0.30675  0.71110  0.92560  1.0000
  C   C47       1.0  0.19325  0.21110  0.57440  1.0000
  C   C48       1.0  0.80675  0.21110  0.92560  1.0000
  H   H1        1.0  0.22971  0.08856  0.00092  1.0000
  H   H2        1.0  0.77029  0.08856  0.49908  1.0000
  H   H3        1.0  0.72971  0.58856  0.00092  1.0000
  H   H4        1.0  0.27029  0.58856  0.49908  1.0000
  H   H5        1.0  0.77029  0.91144  0.99908  1.0000
  H   H6        1.0  0.22971  0.91144  0.50092  1.0000
  H   H7        1.0  0.27029  0.41144  0.99908  1.0000
  H   H8        1.0  0.72971  0.41144  0.50092  1.0000
  H   H9        1.0  0.18616  0.39035  0.43573  1.0000
  H   H10       1.0  0.81384  0.39035  0.06427  1.0000
  H   H11       1.0  0.68616  0.89035  0.43573  1.0000
  H   H12       1.0  0.31384  0.89035  0.06427  1.0000
  H   H13       1.0  0.81384  0.60965  0.56427  1.0000
  H   H14       1.0  0.18616  0.60965  0.93573  1.0000
  H   H15       1.0  0.31384  0.10965  0.56427  1.0000
  H   H16       1.0  0.68616  0.10965  0.93573  1.0000
  H   H17       1.0  0.38069  0.32138  0.10234  1.0000
  H   H18       1.0  0.61931  0.32138  0.39766  1.0000
  H   H19       1.0  0.88069  0.82138  0.10234  1.0000
  H   H20       1.0  0.11931  0.82138  0.39766  1.0000
  H   H21       1.0  0.61931  0.67862  0.89766  1.0000
  H   H22       1.0  0.38069  0.67862  0.60234  1.0000
  H   H23       1.0  0.11931  0.17862  0.89766  1.0000
  H   H24       1.0  0.88069  0.17862  0.60234  1.0000
  H   H25       1.0  0.41094  0.17621  0.43698  1.0000
  H   H26       1.0  0.58906  0.17621  0.06302  1.0000
  H   H27       1.0  0.91094  0.67621  0.43698  1.0000
  H   H28       1.0  0.08906  0.67621  0.06302  1.0000
  H   H29       1.0  0.58906  0.82379  0.56302  1.0000
  H   H30       1.0  0.41094  0.82379  0.93698  1.0000
  H   H31       1.0  0.08906  0.32379  0.56302  1.0000
  H   H32       1.0  0.91094  0.32379  0.93698  1.0000
