data_image0
_chemical_formula_structural       Cd4S16C48H32
_chemical_formula_sum              "Cd4 S16 C48 H32"
_cell_length_a       11.8771
_cell_length_b       14.7118
_cell_length_c       14.6262
_cell_angle_alpha    90
_cell_angle_beta     90.4127
_cell_angle_gamma    90

_space_group_name_H-M_alt    "P 1"
_space_group_IT_number       1

loop_
  _space_group_symop_operation_xyz
  'x, y, z'

loop_
  _atom_site_type_symbol
  _atom_site_label
  _atom_site_symmetry_multiplicity
  _atom_site_fract_x
  _atom_site_fract_y
  _atom_site_fract_z
  _atom_site_occupancy
  Cd  Cd1       1.0  0.50000  0.22608  0.25000  1.0000
  Cd  Cd2       1.0  0.00000  0.72608  0.25000  1.0000
  Cd  Cd3       1.0  0.50000  0.77392  0.75000  1.0000
  Cd  Cd4       1.0  0.00000  0.27392  0.75000  1.0000
  S   S1        1.0  0.37790  0.34110  0.33450  1.0000
  S   S2        1.0  0.87790  0.84110  0.33450  1.0000
  S   S3        1.0  0.62210  0.34110  0.16550  1.0000
  S   S4        1.0  0.12210  0.84110  0.16550  1.0000
  S   S5        1.0  0.62210  0.65890  0.66550  1.0000
  S   S6        1.0  0.12210  0.15890  0.66550  1.0000
  S   S7        1.0  0.37790  0.65890  0.83450  1.0000
  S   S8        1.0  0.87790  0.15890  0.83450  1.0000
  S   S9        1.0  0.38690  0.12310  0.14250  1.0000
  S   S10       1.0  0.88690  0.62310  0.14250  1.0000
  S   S11       1.0  0.61310  0.12310  0.35750  1.0000
  S   S12       1.0  0.11310  0.62310  0.35750  1.0000
  S   S13       1.0  0.61310  0.87690  0.85750  1.0000
  S   S14       1.0  0.11310  0.37690  0.85750  1.0000
  S   S15       1.0  0.38690  0.87690  0.64250  1.0000
  S   S16       1.0  0.88690  0.37690  0.64250  1.0000
  C   C1        1.0  0.23826  0.15498  0.99618  1.0000
  C   C2        1.0  0.73826  0.65498  0.99618  1.0000
  C   C3        1.0  0.76174  0.15498  0.50382  1.0000
  C   C4        1.0  0.26174  0.65498  0.50382  1.0000
  C   C5        1.0  0.76174  0.84502  0.00382  1.0000
  C   C6        1.0  0.26174  0.34502  0.00382  1.0000
  C   C7        1.0  0.23826  0.84502  0.49618  1.0000
  C   C8        1.0  0.73826  0.34502  0.49618  1.0000
  C   C9        1.0  0.32635  0.28949  0.06223  1.0000
  C   C10       1.0  0.82635  0.78949  0.06223  1.0000
  C   C11       1.0  0.67365  0.28949  0.43777  1.0000
  C   C12       1.0  0.17365  0.78949  0.43777  1.0000
  C   C13       1.0  0.67365  0.71051  0.93777  1.0000
  C   C14       1.0  0.17365  0.21051  0.93777  1.0000
  C   C15       1.0  0.32635  0.71051  0.56223  1.0000
  C   C16       1.0  0.82635  0.21051  0.56223  1.0000
  C   C17       1.0  0.31460  0.19448  0.05841  1.0000
  C   C18       1.0  0.81460  0.69448  0.05841  1.0000
  C   C19       1.0  0.68540  0.19448  0.44159  1.0000
  C   C20       1.0  0.18540  0.69448  0.44159  1.0000
  C   C21       1.0  0.68540  0.80552  0.94159  1.0000
  C   C22       1.0  0.18540  0.30552  0.94159  1.0000
  C   C23       1.0  0.31460  0.80552  0.55841  1.0000
  C   C24       1.0  0.81460  0.30552  0.55841  1.0000
  C   C25       1.0  0.20823  0.33168  0.46317  1.0000
  C   C26       1.0  0.70823  0.83168  0.46317  1.0000
  C   C27       1.0  0.79177  0.33168  0.03683  1.0000
  C   C28       1.0  0.29177  0.83168  0.03683  1.0000
  C   C29       1.0  0.79177  0.66832  0.53683  1.0000
  C   C30       1.0  0.29177  0.16832  0.53683  1.0000
  C   C31       1.0  0.20823  0.66832  0.96317  1.0000
  C   C32       1.0  0.70823  0.16832  0.96317  1.0000
  C   C33       1.0  0.34626  0.20930  0.46244  1.0000
  C   C34       1.0  0.84626  0.70930  0.46244  1.0000
  C   C35       1.0  0.65374  0.20930  0.03756  1.0000
  C   C36       1.0  0.15374  0.70930  0.03756  1.0000
  C   C37       1.0  0.65374  0.79070  0.53756  1.0000
  C   C38       1.0  0.15374  0.29070  0.53756  1.0000
  C   C39       1.0  0.34626  0.79070  0.96244  1.0000
  C   C40       1.0  0.84626  0.29070  0.96244  1.0000
  C   C41       1.0  0.30449  0.29098  0.42561  1.0000
  C   C42       1.0  0.80449  0.79098  0.42561  1.0000
  C   C43       1.0  0.69551  0.29098  0.07439  1.0000
  C   C44       1.0  0.19551  0.79098  0.07439  1.0000
  C   C45       1.0  0.69551  0.70902  0.57439  1.0000
  C   C46       1.0  0.19551  0.20902  0.57439  1.0000
  C   C47       1.0  0.30449  0.70902  0.92561  1.0000
  C   C48       1.0  0.80449  0.20902  0.92561  1.0000
  H   H1        1.0  0.22990  0.08740  0.99346  1.0000
  H   H2        1.0  0.72990  0.58740  0.99346  1.0000
  H   H3        1.0  0.77010  0.08740  0.50654  1.0000
  H   H4        1.0  0.27010  0.58740  0.50654  1.0000
  H   H5        1.0  0.77010  0.91260  0.00654  1.0000
  H   H6        1.0  0.27010  0.41260  0.00654  1.0000
  H   H7        1.0  0.22990  0.91260  0.49346  1.0000
  H   H8        1.0  0.72990  0.41260  0.49346  1.0000
  H   H9        1.0  0.38065  0.31758  0.10650  1.0000
  H   H10       1.0  0.88065  0.81758  0.10650  1.0000
  H   H11       1.0  0.61935  0.31758  0.39350  1.0000
  H   H12       1.0  0.11935  0.81758  0.39350  1.0000
  H   H13       1.0  0.61935  0.68242  0.89350  1.0000
  H   H14       1.0  0.11935  0.18242  0.89350  1.0000
  H   H15       1.0  0.38065  0.68242  0.60650  1.0000
  H   H16       1.0  0.88065  0.18242  0.60650  1.0000
  H   H17       1.0  0.17852  0.38978  0.43697  1.0000
  H   H18       1.0  0.67852  0.88978  0.43697  1.0000
  H   H19       1.0  0.82148  0.38978  0.06303  1.0000
  H   H20       1.0  0.32148  0.88978  0.06303  1.0000
  H   H21       1.0  0.82148  0.61022  0.56303  1.0000
  H   H22       1.0  0.32148  0.11022  0.56303  1.0000
  H   H23       1.0  0.17852  0.61022  0.93697  1.0000
  H   H24       1.0  0.67852  0.11022  0.93697  1.0000
  H   H25       1.0  0.41473  0.18036  0.43572  1.0000
  H   H26       1.0  0.91473  0.68036  0.43572  1.0000
  H   H27       1.0  0.58527  0.18036  0.06428  1.0000
  H   H28       1.0  0.08527  0.68036  0.06428  1.0000
  H   H29       1.0  0.58527  0.81964  0.56428  1.0000
  H   H30       1.0  0.08527  0.31964  0.56428  1.0000
  H   H31       1.0  0.41473  0.81964  0.93572  1.0000
  H   H32       1.0  0.91473  0.31964  0.93572  1.0000
