data_image0
_chemical_formula_structural       Cd2S6C18H12
_chemical_formula_sum              "Cd2 S6 C18 H12"
_cell_length_a       11.4954
_cell_length_b       10.6756
_cell_length_c       8.7019
_cell_angle_alpha    58.523
_cell_angle_beta     106.498
_cell_angle_gamma    110.981

_space_group_name_H-M_alt    "P 1"
_space_group_IT_number       1

loop_
  _space_group_symop_operation_xyz
  'x, y, z'

loop_
  _atom_site_type_symbol
  _atom_site_label
  _atom_site_symmetry_multiplicity
  _atom_site_fract_x
  _atom_site_fract_y
  _atom_site_fract_z
  _atom_site_occupancy
  Cd  Cd1       1.0  0.15569  0.11661  0.97645  1.0000
  Cd  Cd2       1.0  0.84431  0.88339  0.02355  1.0000
  S   S1        1.0  0.03308  0.88384  0.93426  1.0000
  S   S2        1.0  0.96692  0.11616  0.06574  1.0000
  S   S3        1.0  0.33517  0.03562  0.20534  1.0000
  S   S4        1.0  0.66483  0.96438  0.79466  1.0000
  S   S5        1.0  0.22588  0.35553  0.72429  1.0000
  S   S6        1.0  0.77412  0.64447  0.27571  1.0000
  C   C1        1.0  0.01379  0.95156  0.68108  1.0000
  C   C2        1.0  0.98621  0.04844  0.31892  1.0000
  C   C3        1.0  0.10615  0.95977  0.60522  1.0000
  C   C4        1.0  0.89385  0.04023  0.39478  1.0000
  C   C5        1.0  0.90765  0.99179  0.57586  1.0000
  C   C6        1.0  0.09235  0.00821  0.42414  1.0000
  C   C7        1.0  0.52875  0.95391  0.18090  1.0000
  C   C8        1.0  0.47125  0.04609  0.81910  1.0000
  C   C9        1.0  0.40078  0.06132  0.90688  1.0000
  C   C10       1.0  0.59922  0.93868  0.09312  1.0000
  C   C11       1.0  0.42954  0.01523  0.08778  1.0000
  C   C12       1.0  0.57046  0.98477  0.91222  1.0000
  C   C13       1.0  0.98663  0.35086  0.55826  1.0000
  C   C14       1.0  0.01337  0.64914  0.44174  1.0000
  C   C15       1.0  0.09804  0.43729  0.59735  1.0000
  C   C16       1.0  0.90196  0.56271  0.40265  1.0000
  C   C17       1.0  0.11141  0.58643  0.53909  1.0000
  C   C18       1.0  0.88859  0.41357  0.46091  1.0000
  H   H1        1.0  0.18436  0.93013  0.68276  1.0000
  H   H2        1.0  0.81564  0.06987  0.31724  1.0000
  H   H3        1.0  0.83959  0.98574  0.63176  1.0000
  H   H4        1.0  0.16041  0.01426  0.36824  1.0000
  H   H5        1.0  0.54994  0.91995  0.31421  1.0000
  H   H6        1.0  0.45006  0.08005  0.68579  1.0000
  H   H7        1.0  0.32767  0.10650  0.83826  1.0000
  H   H8        1.0  0.67233  0.89350  0.16174  1.0000
  H   H9        1.0  0.97677  0.24095  0.60119  1.0000
  H   H10       1.0  0.02323  0.75905  0.39881  1.0000
  H   H11       1.0  0.19352  0.65013  0.56790  1.0000
  H   H12       1.0  0.80648  0.34987  0.43210  1.0000
