data_image0
_chemical_formula_structural       Zn8S40C120H80
_chemical_formula_sum              "Zn8 S40 C120 H80"
_cell_length_a       43.685
_cell_length_b       8.8157
_cell_length_c       18.8929
_cell_angle_alpha    90
_cell_angle_beta     73.8657
_cell_angle_gamma    90

_space_group_name_H-M_alt    "P 1"
_space_group_IT_number       1

loop_
  _space_group_symop_operation_xyz
  'x, y, z'

loop_
  _atom_site_type_symbol
  _atom_site_label
  _atom_site_symmetry_multiplicity
  _atom_site_fract_x
  _atom_site_fract_y
  _atom_site_fract_z
  _atom_site_occupancy
  Zn  Zn1       1.0  0.08426  0.89220  0.10003  1.0000
  Zn  Zn2       1.0  0.58426  0.39220  0.10003  1.0000
  Zn  Zn3       1.0  0.91574  0.89220  0.39997  1.0000
  Zn  Zn4       1.0  0.41574  0.39220  0.39997  1.0000
  Zn  Zn5       1.0  0.91574  0.10780  0.89997  1.0000
  Zn  Zn6       1.0  0.41574  0.60780  0.89997  1.0000
  Zn  Zn7       1.0  0.08426  0.10780  0.60003  1.0000
  Zn  Zn8       1.0  0.58426  0.60780  0.60003  1.0000
  S   S1        1.0  0.07966  0.79500  0.21800  1.0000
  S   S2        1.0  0.57966  0.29500  0.21800  1.0000
  S   S3        1.0  0.92034  0.79500  0.28200  1.0000
  S   S4        1.0  0.42034  0.29500  0.28200  1.0000
  S   S5        1.0  0.92034  0.20500  0.78200  1.0000
  S   S6        1.0  0.42034  0.70500  0.78200  1.0000
  S   S7        1.0  0.07966  0.20500  0.71800  1.0000
  S   S8        1.0  0.57966  0.70500  0.71800  1.0000
  S   S9        1.0  0.12968  0.05790  0.07090  1.0000
  S   S10       1.0  0.62968  0.55790  0.07090  1.0000
  S   S11       1.0  0.87032  0.05790  0.42910  1.0000
  S   S12       1.0  0.37032  0.55790  0.42910  1.0000
  S   S13       1.0  0.87032  0.94210  0.92910  1.0000
  S   S14       1.0  0.37032  0.44210  0.92910  1.0000
  S   S15       1.0  0.12968  0.94210  0.57090  1.0000
  S   S16       1.0  0.62968  0.44210  0.57090  1.0000
  S   S17       1.0  0.03323  0.00880  0.12800  1.0000
  S   S18       1.0  0.53323  0.50880  0.12800  1.0000
  S   S19       1.0  0.96677  0.00880  0.37200  1.0000
  S   S20       1.0  0.46677  0.50880  0.37200  1.0000
  S   S21       1.0  0.96677  0.99120  0.87200  1.0000
  S   S22       1.0  0.46677  0.49120  0.87200  1.0000
  S   S23       1.0  0.03323  0.99120  0.62800  1.0000
  S   S24       1.0  0.53323  0.49120  0.62800  1.0000
  S   S25       1.0  0.08674  0.71570  0.00110  1.0000
  S   S26       1.0  0.58674  0.21570  0.00110  1.0000
  S   S27       1.0  0.91326  0.71570  0.49890  1.0000
  S   S28       1.0  0.41326  0.21570  0.49890  1.0000
  S   S29       1.0  0.91326  0.28430  0.99890  1.0000
  S   S30       1.0  0.41326  0.78430  0.99890  1.0000
  S   S31       1.0  0.08674  0.28430  0.50110  1.0000
  S   S32       1.0  0.58674  0.78430  0.50110  1.0000
  S   S33       1.0  0.20816  0.58470  0.28970  1.0000
  S   S34       1.0  0.70816  0.08470  0.28970  1.0000
  S   S35       1.0  0.79184  0.58470  0.21030  1.0000
  S   S36       1.0  0.29184  0.08470  0.21030  1.0000
  S   S37       1.0  0.79184  0.41530  0.71030  1.0000
  S   S38       1.0  0.29184  0.91530  0.71030  1.0000
  S   S39       1.0  0.20816  0.41530  0.78970  1.0000
  S   S40       1.0  0.70816  0.91530  0.78970  1.0000
  C   C1        1.0  0.11663  0.74258  0.23813  1.0000
  C   C2        1.0  0.61663  0.24258  0.23813  1.0000
  C   C3        1.0  0.88337  0.74258  0.26187  1.0000
  C   C4        1.0  0.38337  0.24258  0.26187  1.0000
  C   C5        1.0  0.88337  0.25742  0.76187  1.0000
  C   C6        1.0  0.38337  0.75742  0.76187  1.0000
  C   C7        1.0  0.11663  0.25742  0.73813  1.0000
  C   C8        1.0  0.61663  0.75742  0.73813  1.0000
  C   C9        1.0  0.12267  0.51681  0.05812  1.0000
  C   C10       1.0  0.62267  0.01681  0.05812  1.0000
  C   C11       1.0  0.87733  0.51681  0.44188  1.0000
  C   C12       1.0  0.37733  0.01681  0.44188  1.0000
  C   C13       1.0  0.87733  0.48319  0.94188  1.0000
  C   C14       1.0  0.37733  0.98319  0.94188  1.0000
  C   C15       1.0  0.12267  0.48319  0.55812  1.0000
  C   C16       1.0  0.62267  0.98319  0.55812  1.0000
  C   C17       1.0  0.98290  0.99933  0.07444  1.0000
  C   C18       1.0  0.48290  0.49933  0.07444  1.0000
  C   C19       1.0  0.01710  0.99933  0.42556  1.0000
  C   C20       1.0  0.51710  0.49933  0.42556  1.0000
  C   C21       1.0  0.01710  0.00067  0.92556  1.0000
  C   C22       1.0  0.51710  0.50067  0.92556  1.0000
  C   C23       1.0  0.98290  0.00067  0.57444  1.0000
  C   C24       1.0  0.48290  0.50067  0.57444  1.0000
  C   C25       1.0  0.11637  0.68698  0.30754  1.0000
  C   C26       1.0  0.61637  0.18698  0.30754  1.0000
  C   C27       1.0  0.88363  0.68698  0.19246  1.0000
  C   C28       1.0  0.38363  0.18698  0.19246  1.0000
  C   C29       1.0  0.88363  0.31302  0.69246  1.0000
  C   C30       1.0  0.38363  0.81302  0.69246  1.0000
  C   C31       1.0  0.11637  0.31302  0.80754  1.0000
  C   C32       1.0  0.61637  0.81302  0.80754  1.0000
  C   C33       1.0  0.13278  0.37108  0.07004  1.0000
  C   C34       1.0  0.63278  0.87108  0.07004  1.0000
  C   C35       1.0  0.86722  0.37108  0.42996  1.0000
  C   C36       1.0  0.36722  0.87108  0.42996  1.0000
  C   C37       1.0  0.86722  0.62892  0.92996  1.0000
  C   C38       1.0  0.36722  0.12892  0.92996  1.0000
  C   C39       1.0  0.13278  0.62892  0.57004  1.0000
  C   C40       1.0  0.63278  0.12892  0.57004  1.0000
  C   C41       1.0  0.01617  0.00445  0.05421  1.0000
  C   C42       1.0  0.51617  0.50445  0.05421  1.0000
  C   C43       1.0  0.98383  0.00445  0.44579  1.0000
  C   C44       1.0  0.48383  0.50445  0.44579  1.0000
  C   C45       1.0  0.98383  0.99555  0.94579  1.0000
  C   C46       1.0  0.48383  0.49555  0.94579  1.0000
  C   C47       1.0  0.01617  0.99555  0.55421  1.0000
  C   C48       1.0  0.51617  0.49555  0.55421  1.0000
  C   C49       1.0  0.14456  0.63493  0.32034  1.0000
  C   C50       1.0  0.64456  0.13493  0.32034  1.0000
  C   C51       1.0  0.85544  0.63493  0.17966  1.0000
  C   C52       1.0  0.35544  0.13493  0.17966  1.0000
  C   C53       1.0  0.85544  0.36507  0.67966  1.0000
  C   C54       1.0  0.35544  0.86507  0.67966  1.0000
  C   C55       1.0  0.14456  0.36507  0.82034  1.0000
  C   C56       1.0  0.64456  0.86507  0.82034  1.0000
  C   C57       1.0  0.11855  0.24440  0.04797  1.0000
  C   C58       1.0  0.61855  0.74440  0.04797  1.0000
  C   C59       1.0  0.88145  0.24440  0.45203  1.0000
  C   C60       1.0  0.38145  0.74440  0.45203  1.0000
  C   C61       1.0  0.88145  0.75560  0.95203  1.0000
  C   C62       1.0  0.38145  0.25560  0.95203  1.0000
  C   C63       1.0  0.11855  0.75560  0.54797  1.0000
  C   C64       1.0  0.61855  0.25560  0.54797  1.0000
  C   C65       1.0  0.03327  0.00511  0.97978  1.0000
  C   C66       1.0  0.53327  0.50511  0.97978  1.0000
  C   C67       1.0  0.96673  0.00511  0.52022  1.0000
  C   C68       1.0  0.46673  0.50511  0.52022  1.0000
  C   C69       1.0  0.96673  0.99489  0.02022  1.0000
  C   C70       1.0  0.46673  0.49489  0.02022  1.0000
  C   C71       1.0  0.03327  0.99489  0.47978  1.0000
  C   C72       1.0  0.53327  0.49489  0.47978  1.0000
  C   C73       1.0  0.17302  0.63849  0.26372  1.0000
  C   C74       1.0  0.67302  0.13849  0.26372  1.0000
  C   C75       1.0  0.82698  0.63849  0.23628  1.0000
  C   C76       1.0  0.32698  0.13849  0.23628  1.0000
  C   C77       1.0  0.82698  0.36151  0.73628  1.0000
  C   C78       1.0  0.32698  0.86151  0.73628  1.0000
  C   C79       1.0  0.17302  0.36151  0.76372  1.0000
  C   C80       1.0  0.67302  0.86151  0.76372  1.0000
  C   C81       1.0  0.09420  0.26345  0.01397  1.0000
  C   C82       1.0  0.59420  0.76345  0.01397  1.0000
  C   C83       1.0  0.90580  0.26345  0.48603  1.0000
  C   C84       1.0  0.40580  0.76345  0.48603  1.0000
  C   C85       1.0  0.90580  0.73655  0.98603  1.0000
  C   C86       1.0  0.40580  0.23655  0.98603  1.0000
  C   C87       1.0  0.09420  0.73655  0.51397  1.0000
  C   C88       1.0  0.59420  0.23655  0.51397  1.0000
  C   C89       1.0  0.17329  0.69409  0.19431  1.0000
  C   C90       1.0  0.67329  0.19409  0.19431  1.0000
  C   C91       1.0  0.82671  0.69409  0.30569  1.0000
  C   C92       1.0  0.32671  0.19409  0.30569  1.0000
  C   C93       1.0  0.82671  0.30591  0.80569  1.0000
  C   C94       1.0  0.32671  0.80591  0.80569  1.0000
  C   C95       1.0  0.17329  0.30591  0.69431  1.0000
  C   C96       1.0  0.67329  0.80591  0.69431  1.0000
  C   C97       1.0  0.08409  0.40919  0.00205  1.0000
  C   C98       1.0  0.58409  0.90919  0.00205  1.0000
  C   C99       1.0  0.91591  0.40919  0.49795  1.0000
  C   C100      1.0  0.41591  0.90919  0.49795  1.0000
  C   C101      1.0  0.91591  0.59081  0.99795  1.0000
  C   C102      1.0  0.41591  0.09081  0.99795  1.0000
  C   C103      1.0  0.08409  0.59081  0.50205  1.0000
  C   C104      1.0  0.58409  0.09081  0.50205  1.0000
  C   C105      1.0  0.14509  0.74614  0.18151  1.0000
  C   C106      1.0  0.64509  0.24614  0.18151  1.0000
  C   C107      1.0  0.85491  0.74614  0.31849  1.0000
  C   C108      1.0  0.35491  0.24614  0.31849  1.0000
  C   C109      1.0  0.85491  0.25386  0.81849  1.0000
  C   C110      1.0  0.35491  0.75386  0.81849  1.0000
  C   C111      1.0  0.14509  0.25386  0.68151  1.0000
  C   C112      1.0  0.64509  0.75386  0.68151  1.0000
  C   C113      1.0  0.09832  0.53587  0.02413  1.0000
  C   C114      1.0  0.59832  0.03587  0.02413  1.0000
  C   C115      1.0  0.90168  0.53587  0.47587  1.0000
  C   C116      1.0  0.40168  0.03587  0.47587  1.0000
  C   C117      1.0  0.90168  0.46413  0.97587  1.0000
  C   C118      1.0  0.40168  0.96413  0.97587  1.0000
  C   C119      1.0  0.09832  0.46413  0.52413  1.0000
  C   C120      1.0  0.59832  0.96413  0.52413  1.0000
  H   H1        1.0  0.13286  0.60748  0.07393  1.0000
  H   H2        1.0  0.63286  0.10748  0.07393  1.0000
  H   H3        1.0  0.86714  0.60748  0.42607  1.0000
  H   H4        1.0  0.36714  0.10748  0.42607  1.0000
  H   H5        1.0  0.86714  0.39252  0.92607  1.0000
  H   H6        1.0  0.36714  0.89252  0.92607  1.0000
  H   H7        1.0  0.13286  0.39252  0.57393  1.0000
  H   H8        1.0  0.63286  0.89252  0.57393  1.0000
  H   H9        1.0  0.97066  0.99886  0.12771  1.0000
  H   H10       1.0  0.47066  0.49886  0.12771  1.0000
  H   H11       1.0  0.02934  0.99886  0.37229  1.0000
  H   H12       1.0  0.52934  0.49886  0.37229  1.0000
  H   H13       1.0  0.02934  0.00114  0.87229  1.0000
  H   H14       1.0  0.52934  0.50114  0.87229  1.0000
  H   H15       1.0  0.97066  0.00114  0.62771  1.0000
  H   H16       1.0  0.47066  0.50114  0.62771  1.0000
  H   H17       1.0  0.09599  0.68443  0.34807  1.0000
  H   H18       1.0  0.59599  0.18443  0.34807  1.0000
  H   H19       1.0  0.90401  0.68443  0.15193  1.0000
  H   H20       1.0  0.40401  0.18443  0.15193  1.0000
  H   H21       1.0  0.90401  0.31557  0.65193  1.0000
  H   H22       1.0  0.40401  0.81557  0.65193  1.0000
  H   H23       1.0  0.09599  0.31557  0.84807  1.0000
  H   H24       1.0  0.59599  0.81557  0.84807  1.0000
  H   H25       1.0  0.15021  0.35743  0.09438  1.0000
  H   H26       1.0  0.65021  0.85743  0.09438  1.0000
  H   H27       1.0  0.84979  0.35743  0.40562  1.0000
  H   H28       1.0  0.34979  0.85743  0.40562  1.0000
  H   H29       1.0  0.84979  0.64257  0.90562  1.0000
  H   H30       1.0  0.34979  0.14257  0.90562  1.0000
  H   H31       1.0  0.15021  0.64257  0.59438  1.0000
  H   H32       1.0  0.65021  0.14257  0.59438  1.0000
  H   H33       1.0  0.14438  0.59513  0.37002  1.0000
  H   H34       1.0  0.64438  0.09513  0.37002  1.0000
  H   H35       1.0  0.85562  0.59513  0.12998  1.0000
  H   H36       1.0  0.35562  0.09513  0.12998  1.0000
  H   H37       1.0  0.85562  0.40487  0.62998  1.0000
  H   H38       1.0  0.35562  0.90487  0.62998  1.0000
  H   H39       1.0  0.14438  0.40487  0.87002  1.0000
  H   H40       1.0  0.64438  0.90487  0.87002  1.0000
  H   H41       1.0  0.05709  0.00877  0.96531  1.0000
  H   H42       1.0  0.55709  0.50877  0.96531  1.0000
  H   H43       1.0  0.94291  0.00877  0.53469  1.0000
  H   H44       1.0  0.44291  0.50877  0.53469  1.0000
  H   H45       1.0  0.94291  0.99123  0.03469  1.0000
  H   H46       1.0  0.44291  0.49123  0.03469  1.0000
  H   H47       1.0  0.05709  0.99123  0.46531  1.0000
  H   H48       1.0  0.55709  0.49123  0.46531  1.0000
  H   H49       1.0  0.08401  0.17278  0.99816  1.0000
  H   H50       1.0  0.58401  0.67278  0.99816  1.0000
  H   H51       1.0  0.91599  0.17278  0.50184  1.0000
  H   H52       1.0  0.41599  0.67278  0.50184  1.0000
  H   H53       1.0  0.91599  0.82722  0.00184  1.0000
  H   H54       1.0  0.41599  0.32722  0.00184  1.0000
  H   H55       1.0  0.08401  0.82722  0.49816  1.0000
  H   H56       1.0  0.58401  0.32722  0.49816  1.0000
  H   H57       1.0  0.19366  0.69664  0.15378  1.0000
  H   H58       1.0  0.69366  0.19664  0.15378  1.0000
  H   H59       1.0  0.80634  0.69664  0.34622  1.0000
  H   H60       1.0  0.30634  0.19664  0.34622  1.0000
  H   H61       1.0  0.80634  0.30336  0.84622  1.0000
  H   H62       1.0  0.30634  0.80336  0.84622  1.0000
  H   H63       1.0  0.19366  0.30336  0.65378  1.0000
  H   H64       1.0  0.69366  0.80336  0.65378  1.0000
  H   H65       1.0  0.06666  0.42283  0.97771  1.0000
  H   H66       1.0  0.56666  0.92283  0.97771  1.0000
  H   H67       1.0  0.93334  0.42283  0.52229  1.0000
  H   H68       1.0  0.43334  0.92283  0.52229  1.0000
  H   H69       1.0  0.93334  0.57717  0.02229  1.0000
  H   H70       1.0  0.43334  0.07717  0.02229  1.0000
  H   H71       1.0  0.06666  0.57717  0.47771  1.0000
  H   H72       1.0  0.56666  0.07717  0.47771  1.0000
  H   H73       1.0  0.14528  0.78593  0.13183  1.0000
  H   H74       1.0  0.64528  0.28593  0.13183  1.0000
  H   H75       1.0  0.85472  0.78593  0.36817  1.0000
  H   H76       1.0  0.35472  0.28593  0.36817  1.0000
  H   H77       1.0  0.85472  0.21407  0.86817  1.0000
  H   H78       1.0  0.35472  0.71407  0.86817  1.0000
  H   H79       1.0  0.14528  0.21407  0.63183  1.0000
  H   H80       1.0  0.64528  0.71407  0.63183  1.0000
