data_image0
_chemical_formula_structural       Mn8O48C4H4C4H4C4H4C4H4C4H4C4H4
_chemical_formula_sum              "Mn8 O48 C24 H24"
_cell_length_a       8.5477
_cell_length_b       15.282
_cell_length_c       13.6085
_cell_angle_alpha    90
_cell_angle_beta     90.06
_cell_angle_gamma    90

_space_group_name_H-M_alt    "P 1"
_space_group_IT_number       1

loop_
  _space_group_symop_operation_xyz
  'x, y, z'

loop_
  _atom_site_type_symbol
  _atom_site_label
  _atom_site_symmetry_multiplicity
  _atom_site_fract_x
  _atom_site_fract_y
  _atom_site_fract_z
  _atom_site_occupancy
  Mn  Mn1       1.0  0.21792  0.83650  0.98797  1.0000
  Mn  Mn2       1.0  0.21792  0.16350  0.48797  1.0000
  Mn  Mn3       1.0  0.71792  0.33650  0.98797  1.0000
  Mn  Mn4       1.0  0.71792  0.66350  0.48797  1.0000
  Mn  Mn5       1.0  0.21761  0.50143  0.73529  1.0000
  Mn  Mn6       1.0  0.21761  0.49857  0.23529  1.0000
  Mn  Mn7       1.0  0.71761  0.00143  0.73529  1.0000
  Mn  Mn8       1.0  0.71761  0.99857  0.23529  1.0000
  O   O1        1.0  0.30530  0.93129  0.88103  1.0000
  O   O2        1.0  0.30530  0.06871  0.38103  1.0000
  O   O3        1.0  0.80530  0.43129  0.88103  1.0000
  O   O4        1.0  0.80530  0.56871  0.38103  1.0000
  O   O5        1.0  0.13710  0.94165  0.08493  1.0000
  O   O6        1.0  0.13710  0.05835  0.58493  1.0000
  O   O7        1.0  0.63710  0.44165  0.08493  1.0000
  O   O8        1.0  0.63710  0.55835  0.58493  1.0000
  O   O9        1.0  0.30890  0.73669  0.88980  1.0000
  O   O10       1.0  0.30890  0.26331  0.38980  1.0000
  O   O11       1.0  0.80890  0.23669  0.88980  1.0000
  O   O12       1.0  0.80890  0.76331  0.38980  1.0000
  O   O13       1.0  0.13190  0.74154  0.09681  1.0000
  O   O14       1.0  0.13190  0.25846  0.59681  1.0000
  O   O15       1.0  0.63190  0.24154  0.09681  1.0000
  O   O16       1.0  0.63190  0.75846  0.59681  1.0000
  O   O17       1.0  0.44690  0.83260  0.05140  1.0000
  O   O18       1.0  0.44690  0.16740  0.55140  1.0000
  O   O19       1.0  0.94690  0.33260  0.05140  1.0000
  O   O20       1.0  0.94690  0.66740  0.55140  1.0000
  O   O21       1.0  0.99700  0.83214  0.90910  1.0000
  O   O22       1.0  0.99700  0.16786  0.40910  1.0000
  O   O23       1.0  0.49700  0.33214  0.90910  1.0000
  O   O24       1.0  0.49700  0.66786  0.40910  1.0000
  O   O25       1.0  0.94140  0.00984  0.16053  1.0000
  O   O26       1.0  0.94140  0.99016  0.66053  1.0000
  O   O27       1.0  0.44140  0.50984  0.16053  1.0000
  O   O28       1.0  0.44140  0.49016  0.66053  1.0000
  O   O29       1.0  0.32220  0.60573  0.81995  1.0000
  O   O30       1.0  0.32220  0.39427  0.31995  1.0000
  O   O31       1.0  0.82220  0.10573  0.81995  1.0000
  O   O32       1.0  0.82220  0.89427  0.31995  1.0000
  O   O33       1.0  0.49230  0.00869  0.80788  1.0000
  O   O34       1.0  0.49230  0.99131  0.30788  1.0000
  O   O35       1.0  0.99230  0.50869  0.80788  1.0000
  O   O36       1.0  0.99230  0.49131  0.30788  1.0000
  O   O37       1.0  0.10840  0.60525  0.15239  1.0000
  O   O38       1.0  0.10840  0.39475  0.65239  1.0000
  O   O39       1.0  0.60840  0.10525  0.15239  1.0000
  O   O40       1.0  0.60840  0.89475  0.65239  1.0000
  O   O41       1.0  0.63510  0.90194  0.13290  1.0000
  O   O42       1.0  0.63510  0.09806  0.63290  1.0000
  O   O43       1.0  0.13510  0.40194  0.13290  1.0000
  O   O44       1.0  0.13510  0.59806  0.63290  1.0000
  O   O45       1.0  0.79590  0.89509  0.83302  1.0000
  O   O46       1.0  0.79590  0.10491  0.33302  1.0000
  O   O47       1.0  0.29590  0.39509  0.83302  1.0000
  O   O48       1.0  0.29590  0.60491  0.33302  1.0000
  C   C1        1.0  0.24750  0.66630  0.85980  1.0000
  C   C2        1.0  0.24750  0.33370  0.35980  1.0000
  C   C3        1.0  0.74750  0.16630  0.85980  1.0000
  C   C4        1.0  0.74750  0.83370  0.35980  1.0000
  H   H1        1.0  0.14020  0.65920  0.86790  1.0000
  H   H2        1.0  0.14020  0.34080  0.36790  1.0000
  H   H3        1.0  0.64020  0.15920  0.86790  1.0000
  H   H4        1.0  0.64020  0.84080  0.36790  1.0000
  C   C5        1.0  0.17810  0.66400  0.10510  1.0000
  C   C6        1.0  0.17810  0.33600  0.60510  1.0000
  C   C7        1.0  0.67810  0.16400  0.10510  1.0000
  C   C8        1.0  0.67810  0.83600  0.60510  1.0000
  H   H5        1.0  0.27080  0.64880  0.07390  1.0000
  H   H6        1.0  0.27080  0.35120  0.57390  1.0000
  H   H7        1.0  0.77080  0.14880  0.07390  1.0000
  H   H8        1.0  0.77080  0.85120  0.57390  1.0000
  C   C9        1.0  0.92840  0.89650  0.87290  1.0000
  C   C10       1.0  0.92840  0.10350  0.37290  1.0000
  C   C11       1.0  0.42840  0.39650  0.87290  1.0000
  C   C12       1.0  0.42840  0.60350  0.37290  1.0000
  H   H9        1.0  0.97980  0.95010  0.87570  1.0000
  H   H10       1.0  0.97980  0.04990  0.37570  1.0000
  H   H11       1.0  0.47980  0.45010  0.87570  1.0000
  H   H12       1.0  0.47980  0.54990  0.37570  1.0000
  C   C13       1.0  0.49620  0.87910  0.11920  1.0000
  C   C14       1.0  0.49620  0.12090  0.61920  1.0000
  C   C15       1.0  0.99620  0.37910  0.11920  1.0000
  C   C16       1.0  0.99620  0.62090  0.61920  1.0000
  H   H13       1.0  0.42290  0.89890  0.16440  1.0000
  H   H14       1.0  0.42290  0.10110  0.66440  1.0000
  H   H15       1.0  0.92290  0.39890  0.16440  1.0000
  H   H16       1.0  0.92290  0.60110  0.66440  1.0000
  C   C17       1.0  0.99700  0.94580  0.11470  1.0000
  C   C18       1.0  0.99700  0.05420  0.61470  1.0000
  C   C19       1.0  0.49700  0.44580  0.11470  1.0000
  C   C20       1.0  0.49700  0.55420  0.61470  1.0000
  H   H17       1.0  0.93150  0.89860  0.10190  1.0000
  H   H18       1.0  0.93150  0.10140  0.60190  1.0000
  H   H19       1.0  0.43150  0.39860  0.10190  1.0000
  H   H20       1.0  0.43150  0.60140  0.60190  1.0000
  C   C21       1.0  0.43940  0.96490  0.87770  1.0000
  C   C22       1.0  0.43940  0.03510  0.37770  1.0000
  C   C23       1.0  0.93940  0.46490  0.87770  1.0000
  C   C24       1.0  0.93940  0.53510  0.37770  1.0000
  H   H21       1.0  0.50460  0.95640  0.93170  1.0000
  H   H22       1.0  0.50460  0.04360  0.43170  1.0000
  H   H23       1.0  0.00460  0.45640  0.93170  1.0000
  H   H24       1.0  0.00460  0.54360  0.43170  1.0000
