data_image0
_chemical_formula_structural       Mn8O48C4H4C4H4C4H4C4H4C4H4C4H4
_chemical_formula_sum              "Mn8 O48 C24 H24"
_cell_length_a       8.5542
_cell_length_b       15.299
_cell_length_c       13.6149
_cell_angle_alpha    90
_cell_angle_beta     90.1
_cell_angle_gamma    90

_space_group_name_H-M_alt    "P 1"
_space_group_IT_number       1

loop_
  _space_group_symop_operation_xyz
  'x, y, z'

loop_
  _atom_site_type_symbol
  _atom_site_label
  _atom_site_symmetry_multiplicity
  _atom_site_fract_x
  _atom_site_fract_y
  _atom_site_fract_z
  _atom_site_occupancy
  Mn  Mn1       1.0  0.21810  0.83626  0.98788  1.0000
  Mn  Mn2       1.0  0.21810  0.16374  0.48788  1.0000
  Mn  Mn3       1.0  0.71810  0.33626  0.98788  1.0000
  Mn  Mn4       1.0  0.71810  0.66374  0.48788  1.0000
  Mn  Mn5       1.0  0.21742  0.50159  0.73544  1.0000
  Mn  Mn6       1.0  0.21742  0.49841  0.23544  1.0000
  Mn  Mn7       1.0  0.71742  0.00159  0.73544  1.0000
  Mn  Mn8       1.0  0.71742  0.99841  0.23544  1.0000
  O   O1        1.0  0.30600  0.93136  0.88110  1.0000
  O   O2        1.0  0.30600  0.06864  0.38110  1.0000
  O   O3        1.0  0.80600  0.43136  0.88110  1.0000
  O   O4        1.0  0.80600  0.56864  0.38110  1.0000
  O   O5        1.0  0.13620  0.94090  0.08480  1.0000
  O   O6        1.0  0.13620  0.05910  0.58480  1.0000
  O   O7        1.0  0.63620  0.44090  0.08480  1.0000
  O   O8        1.0  0.63620  0.55910  0.58480  1.0000
  O   O9        1.0  0.30950  0.73660  0.88950  1.0000
  O   O10       1.0  0.30950  0.26340  0.38950  1.0000
  O   O11       1.0  0.80950  0.23660  0.88950  1.0000
  O   O12       1.0  0.80950  0.76340  0.38950  1.0000
  O   O13       1.0  0.13150  0.74060  0.09570  1.0000
  O   O14       1.0  0.13150  0.25940  0.59570  1.0000
  O   O15       1.0  0.63150  0.24060  0.09570  1.0000
  O   O16       1.0  0.63150  0.75940  0.59570  1.0000
  O   O17       1.0  0.44600  0.83246  0.05230  1.0000
  O   O18       1.0  0.44600  0.16754  0.55230  1.0000
  O   O19       1.0  0.94600  0.33246  0.05230  1.0000
  O   O20       1.0  0.94600  0.66754  0.55230  1.0000
  O   O21       1.0  0.99770  0.83264  0.90840  1.0000
  O   O22       1.0  0.99770  0.16736  0.40840  1.0000
  O   O23       1.0  0.49770  0.33264  0.90840  1.0000
  O   O24       1.0  0.49770  0.66736  0.40840  1.0000
  O   O25       1.0  0.94120  0.00883  0.16050  1.0000
  O   O26       1.0  0.94120  0.99117  0.66050  1.0000
  O   O27       1.0  0.44120  0.50883  0.16050  1.0000
  O   O28       1.0  0.44120  0.49117  0.66050  1.0000
  O   O29       1.0  0.32150  0.60616  0.82030  1.0000
  O   O30       1.0  0.32150  0.39384  0.32030  1.0000
  O   O31       1.0  0.82150  0.10616  0.82030  1.0000
  O   O32       1.0  0.82150  0.89384  0.32030  1.0000
  O   O33       1.0  0.49300  0.00812  0.80850  1.0000
  O   O34       1.0  0.49300  0.99188  0.30850  1.0000
  O   O35       1.0  0.99300  0.50812  0.80850  1.0000
  O   O36       1.0  0.99300  0.49188  0.30850  1.0000
  O   O37       1.0  0.10850  0.60512  0.15230  1.0000
  O   O38       1.0  0.10850  0.39488  0.65230  1.0000
  O   O39       1.0  0.60850  0.10512  0.15230  1.0000
  O   O40       1.0  0.60850  0.89488  0.65230  1.0000
  O   O41       1.0  0.63430  0.90200  0.13350  1.0000
  O   O42       1.0  0.63430  0.09800  0.63350  1.0000
  O   O43       1.0  0.13430  0.40200  0.13350  1.0000
  O   O44       1.0  0.13430  0.59800  0.63350  1.0000
  O   O45       1.0  0.79660  0.89531  0.83270  1.0000
  O   O46       1.0  0.79660  0.10469  0.33270  1.0000
  O   O47       1.0  0.29660  0.39531  0.83270  1.0000
  O   O48       1.0  0.29660  0.60469  0.33270  1.0000
  C   C1        1.0  0.24820  0.66710  0.86010  1.0000
  C   C2        1.0  0.24820  0.33290  0.36010  1.0000
  C   C3        1.0  0.74820  0.16710  0.86010  1.0000
  C   C4        1.0  0.74820  0.83290  0.36010  1.0000
  H   H1        1.0  0.14100  0.66030  0.86860  1.0000
  H   H2        1.0  0.14100  0.33970  0.36860  1.0000
  H   H3        1.0  0.64100  0.16030  0.86860  1.0000
  H   H4        1.0  0.64100  0.83970  0.36860  1.0000
  C   C5        1.0  0.17720  0.66350  0.10480  1.0000
  C   C6        1.0  0.17720  0.33650  0.60480  1.0000
  C   C7        1.0  0.67720  0.16350  0.10480  1.0000
  C   C8        1.0  0.67720  0.83650  0.60480  1.0000
  H   H5        1.0  0.26990  0.64820  0.07370  1.0000
  H   H6        1.0  0.26990  0.35180  0.57370  1.0000
  H   H7        1.0  0.76990  0.14820  0.07370  1.0000
  H   H8        1.0  0.76990  0.85180  0.57370  1.0000
  C   C9        1.0  0.92940  0.89660  0.87290  1.0000
  C   C10       1.0  0.92940  0.10340  0.37290  1.0000
  C   C11       1.0  0.42940  0.39660  0.87290  1.0000
  C   C12       1.0  0.42940  0.60340  0.37290  1.0000
  H   H9        1.0  0.98040  0.95020  0.87610  1.0000
  H   H10       1.0  0.98040  0.04980  0.37610  1.0000
  H   H11       1.0  0.48040  0.45020  0.87610  1.0000
  H   H12       1.0  0.48040  0.54980  0.37610  1.0000
  C   C13       1.0  0.49680  0.87990  0.11900  1.0000
  C   C14       1.0  0.49680  0.12010  0.61900  1.0000
  C   C15       1.0  0.99680  0.37990  0.11900  1.0000
  C   C16       1.0  0.99680  0.62010  0.61900  1.0000
  H   H13       1.0  0.42330  0.90140  0.16310  1.0000
  H   H14       1.0  0.42330  0.09860  0.66310  1.0000
  H   H15       1.0  0.92330  0.40140  0.16310  1.0000
  H   H16       1.0  0.92330  0.59860  0.66310  1.0000
  C   C17       1.0  0.99640  0.94510  0.11480  1.0000
  C   C18       1.0  0.99640  0.05490  0.61480  1.0000
  C   C19       1.0  0.49640  0.44510  0.11480  1.0000
  C   C20       1.0  0.49640  0.55490  0.61480  1.0000
  H   H17       1.0  0.93090  0.89800  0.10210  1.0000
  H   H18       1.0  0.93090  0.10200  0.60210  1.0000
  H   H19       1.0  0.43090  0.39800  0.10210  1.0000
  H   H20       1.0  0.43090  0.60200  0.60210  1.0000
  C   C21       1.0  0.43920  0.96500  0.87830  1.0000
  C   C22       1.0  0.43920  0.03500  0.37830  1.0000
  C   C23       1.0  0.93920  0.46500  0.87830  1.0000
  C   C24       1.0  0.93920  0.53500  0.37830  1.0000
  H   H21       1.0  0.50340  0.95720  0.93280  1.0000
  H   H22       1.0  0.50340  0.04280  0.43280  1.0000
  H   H23       1.0  0.00340  0.45720  0.93280  1.0000
  H   H24       1.0  0.00340  0.54280  0.43280  1.0000
