data_image0
_chemical_formula_structural       Mn8O48C4H4C4H4C4H4C4H4C4H4C4H4
_chemical_formula_sum              "Mn8 O48 C24 H24"
_cell_length_a       8.5712
_cell_length_b       15.3307
_cell_length_c       13.6416
_cell_angle_alpha    90
_cell_angle_beta     90.197
_cell_angle_gamma    90

_space_group_name_H-M_alt    "P 1"
_space_group_IT_number       1

loop_
  _space_group_symop_operation_xyz
  'x, y, z'

loop_
  _atom_site_type_symbol
  _atom_site_label
  _atom_site_symmetry_multiplicity
  _atom_site_fract_x
  _atom_site_fract_y
  _atom_site_fract_z
  _atom_site_occupancy
  Mn  Mn1       1.0  0.11660  0.33568  0.32001  1.0000
  Mn  Mn2       1.0  0.11660  0.66432  0.82001  1.0000
  Mn  Mn3       1.0  0.61660  0.83568  0.32001  1.0000
  Mn  Mn4       1.0  0.61660  0.16432  0.82001  1.0000
  Mn  Mn5       1.0  0.11543  0.99831  0.56765  1.0000
  Mn  Mn6       1.0  0.11543  0.00169  0.06765  1.0000
  Mn  Mn7       1.0  0.61543  0.49831  0.56765  1.0000
  Mn  Mn8       1.0  0.61543  0.50169  0.06765  1.0000
  O   O1        1.0  0.02790  0.23880  0.42580  1.0000
  O   O2        1.0  0.02790  0.76120  0.92580  1.0000
  O   O3        1.0  0.52790  0.73880  0.42580  1.0000
  O   O4        1.0  0.52790  0.26120  0.92580  1.0000
  O   O5        1.0  0.00700  0.10530  0.48500  1.0000
  O   O6        1.0  0.00700  0.89470  0.98500  1.0000
  O   O7        1.0  0.50700  0.60530  0.48500  1.0000
  O   O8        1.0  0.50700  0.39470  0.98500  1.0000
  O   O9        1.0  0.20930  0.23680  0.22260  1.0000
  O   O10       1.0  0.20930  0.76320  0.72260  1.0000
  O   O11       1.0  0.70930  0.73680  0.22260  1.0000
  O   O12       1.0  0.70930  0.26320  0.72260  1.0000
  O   O13       1.0  0.21870  0.10700  0.15160  1.0000
  O   O14       1.0  0.21870  0.89300  0.65160  1.0000
  O   O15       1.0  0.71870  0.60700  0.15160  1.0000
  O   O16       1.0  0.71870  0.39300  0.65160  1.0000
  O   O17       1.0  0.34130  0.33280  0.38850  1.0000
  O   O18       1.0  0.34130  0.66720  0.88850  1.0000
  O   O19       1.0  0.84130  0.83280  0.38850  1.0000
  O   O20       1.0  0.84130  0.16720  0.88850  1.0000
  O   O21       1.0  0.52920  0.40200  0.46640  1.0000
  O   O22       1.0  0.52920  0.59800  0.96640  1.0000
  O   O23       1.0  0.02920  0.90200  0.46640  1.0000
  O   O24       1.0  0.02920  0.09800  0.96640  1.0000
  O   O25       1.0  0.20650  0.43060  0.21500  1.0000
  O   O26       1.0  0.20650  0.56940  0.71500  1.0000
  O   O27       1.0  0.70650  0.93060  0.21500  1.0000
  O   O28       1.0  0.70650  0.06940  0.71500  1.0000
  O   O29       1.0  0.39330  0.50710  0.14200  1.0000
  O   O30       1.0  0.39330  0.49290  0.64200  1.0000
  O   O31       1.0  0.89330  0.00710  0.14200  1.0000
  O   O32       1.0  0.89330  0.99290  0.64200  1.0000
  O   O33       1.0  0.89920  0.33300  0.23860  1.0000
  O   O34       1.0  0.89920  0.66700  0.73860  1.0000
  O   O35       1.0  0.39920  0.83300  0.23860  1.0000
  O   O36       1.0  0.39920  0.16700  0.73860  1.0000
  O   O37       1.0  0.69710  0.39620  0.16270  1.0000
  O   O38       1.0  0.69710  0.60380  0.66270  1.0000
  O   O39       1.0  0.19710  0.89620  0.16270  1.0000
  O   O40       1.0  0.19710  0.10380  0.66270  1.0000
  O   O41       1.0  0.03240  0.43950  0.41800  1.0000
  O   O42       1.0  0.03240  0.56050  0.91800  1.0000
  O   O43       1.0  0.53240  0.93950  0.41800  1.0000
  O   O44       1.0  0.53240  0.06050  0.91800  1.0000
  O   O45       1.0  0.83890  0.50650  0.49240  1.0000
  O   O46       1.0  0.83890  0.49350  0.99240  1.0000
  O   O47       1.0  0.33890  0.00650  0.49240  1.0000
  O   O48       1.0  0.33890  0.99350  0.99240  1.0000
  C   C1        1.0  0.07260  0.16240  0.43740  1.0000
  C   C2        1.0  0.07260  0.83760  0.93740  1.0000
  C   C3        1.0  0.57260  0.66240  0.43740  1.0000
  C   C4        1.0  0.57260  0.33760  0.93740  1.0000
  H   H1        1.0  0.16540  0.14690  0.40700  1.0000
  H   H2        1.0  0.16540  0.85310  0.90700  1.0000
  H   H3        1.0  0.66540  0.64690  0.40700  1.0000
  H   H4        1.0  0.66540  0.35310  0.90700  1.0000
  C   C5        1.0  0.14860  0.16840  0.19190  1.0000
  C   C6        1.0  0.14860  0.83160  0.69190  1.0000
  C   C7        1.0  0.64860  0.66840  0.19190  1.0000
  C   C8        1.0  0.64860  0.33160  0.69190  1.0000
  H   H5        1.0  0.04140  0.16250  0.19970  1.0000
  H   H6        1.0  0.04140  0.83750  0.69970  1.0000
  H   H7        1.0  0.54140  0.66250  0.19970  1.0000
  H   H8        1.0  0.54140  0.33750  0.69970  1.0000
  C   C9        1.0  0.39740  0.38090  0.45150  1.0000
  C   C10       1.0  0.39740  0.61910  0.95150  1.0000
  C   C11       1.0  0.89740  0.88090  0.45150  1.0000
  C   C12       1.0  0.89740  0.11910  0.95150  1.0000
  H   H9        1.0  0.32520  0.40480  0.49470  1.0000
  H   H10       1.0  0.32520  0.59520  0.99470  1.0000
  H   H11       1.0  0.82520  0.90480  0.49470  1.0000
  H   H12       1.0  0.82520  0.09520  0.99470  1.0000
  C   C13       1.0  0.33940  0.46470  0.20910  1.0000
  C   C14       1.0  0.33940  0.53530  0.70910  1.0000
  C   C15       1.0  0.83940  0.96470  0.20910  1.0000
  C   C16       1.0  0.83940  0.03530  0.70910  1.0000
  H   H13       1.0  0.40470  0.45650  0.26290  1.0000
  H   H14       1.0  0.40470  0.54350  0.76290  1.0000
  H   H15       1.0  0.90470  0.95650  0.26290  1.0000
  H   H16       1.0  0.90470  0.04350  0.76290  1.0000
  C   C17       1.0  0.82980  0.39580  0.20390  1.0000
  C   C18       1.0  0.82980  0.60420  0.70390  1.0000
  C   C19       1.0  0.32980  0.89580  0.20390  1.0000
  C   C20       1.0  0.32980  0.10420  0.70390  1.0000
  H   H17       1.0  0.88040  0.44940  0.20820  1.0000
  H   H18       1.0  0.88040  0.55060  0.70820  1.0000
  H   H19       1.0  0.38040  0.94940  0.20820  1.0000
  H   H20       1.0  0.38040  0.05060  0.70820  1.0000
  C   C21       1.0  0.89760  0.44280  0.44630  1.0000
  C   C22       1.0  0.89760  0.55720  0.94630  1.0000
  C   C23       1.0  0.39760  0.94280  0.44630  1.0000
  C   C24       1.0  0.39760  0.05720  0.94630  1.0000
  H   H21       1.0  0.83360  0.39520  0.43310  1.0000
  H   H22       1.0  0.83360  0.60480  0.93310  1.0000
  H   H23       1.0  0.33360  0.89520  0.43310  1.0000
  H   H24       1.0  0.33360  0.10480  0.93310  1.0000
