data_image0
_chemical_formula_structural       Mn8O48C4H4C4H4C4H4C4H4C4H4C4H4
_chemical_formula_sum              "Mn8 O48 C24 H24"
_cell_length_a       8.5608
_cell_length_b       15.3339
_cell_length_c       13.6433
_cell_angle_alpha    90
_cell_angle_beta     90.19
_cell_angle_gamma    90

_space_group_name_H-M_alt    "P 1"
_space_group_IT_number       1

loop_
  _space_group_symop_operation_xyz
  'x, y, z'

loop_
  _atom_site_type_symbol
  _atom_site_label
  _atom_site_symmetry_multiplicity
  _atom_site_fract_x
  _atom_site_fract_y
  _atom_site_fract_z
  _atom_site_occupancy
  Mn  Mn1       1.0  0.21861  0.83573  0.98774  1.0000
  Mn  Mn2       1.0  0.21861  0.16427  0.48774  1.0000
  Mn  Mn3       1.0  0.71861  0.33573  0.98774  1.0000
  Mn  Mn4       1.0  0.71861  0.66427  0.48774  1.0000
  Mn  Mn5       1.0  0.21677  0.50202  0.73566  1.0000
  Mn  Mn6       1.0  0.21677  0.49798  0.23566  1.0000
  Mn  Mn7       1.0  0.71677  0.00202  0.73566  1.0000
  Mn  Mn8       1.0  0.71677  0.99798  0.23566  1.0000
  O   O1        1.0  0.30910  0.93087  0.88225  1.0000
  O   O2        1.0  0.30910  0.06913  0.38225  1.0000
  O   O3        1.0  0.80910  0.43087  0.88225  1.0000
  O   O4        1.0  0.80910  0.56913  0.38225  1.0000
  O   O5        1.0  0.13420  0.93931  0.08489  1.0000
  O   O6        1.0  0.13420  0.06069  0.58489  1.0000
  O   O7        1.0  0.63420  0.43931  0.08489  1.0000
  O   O8        1.0  0.63420  0.56069  0.58489  1.0000
  O   O9        1.0  0.31120  0.73677  0.88936  1.0000
  O   O10       1.0  0.31120  0.26323  0.38936  1.0000
  O   O11       1.0  0.81120  0.23677  0.88936  1.0000
  O   O12       1.0  0.81120  0.76323  0.38936  1.0000
  O   O13       1.0  0.13020  0.73843  0.09299  1.0000
  O   O14       1.0  0.13020  0.26157  0.59299  1.0000
  O   O15       1.0  0.63020  0.23843  0.09299  1.0000
  O   O16       1.0  0.63020  0.76157  0.59299  1.0000
  O   O17       1.0  0.44430  0.83238  0.05550  1.0000
  O   O18       1.0  0.44430  0.16762  0.55550  1.0000
  O   O19       1.0  0.94430  0.33238  0.05550  1.0000
  O   O20       1.0  0.94430  0.66762  0.55550  1.0000
  O   O21       1.0  0.00090  0.83416  0.90597  1.0000
  O   O22       1.0  0.00090  0.16584  0.40597  1.0000
  O   O23       1.0  0.50090  0.33416  0.90597  1.0000
  O   O24       1.0  0.50090  0.66584  0.40597  1.0000
  O   O25       1.0  0.94020  0.00613  0.16035  1.0000
  O   O26       1.0  0.94020  0.99387  0.66035  1.0000
  O   O27       1.0  0.44020  0.50613  0.16035  1.0000
  O   O28       1.0  0.44020  0.49387  0.66035  1.0000
  O   O29       1.0  0.31930  0.60731  0.81930  1.0000
  O   O30       1.0  0.31930  0.39269  0.31930  1.0000
  O   O31       1.0  0.81930  0.10731  0.81930  1.0000
  O   O32       1.0  0.81930  0.89269  0.31930  1.0000
  O   O33       1.0  0.49420  0.00726  0.81042  1.0000
  O   O34       1.0  0.49420  0.99274  0.31042  1.0000
  O   O35       1.0  0.99420  0.50726  0.81042  1.0000
  O   O36       1.0  0.99420  0.49274  0.31042  1.0000
  O   O37       1.0  0.10820  0.60536  0.15235  1.0000
  O   O38       1.0  0.10820  0.39464  0.65235  1.0000
  O   O39       1.0  0.60820  0.10536  0.15235  1.0000
  O   O40       1.0  0.60820  0.89464  0.65235  1.0000
  O   O41       1.0  0.63140  0.90223  0.13470  1.0000
  O   O42       1.0  0.63140  0.09777  0.63470  1.0000
  O   O43       1.0  0.13140  0.40223  0.13470  1.0000
  O   O44       1.0  0.13140  0.59777  0.63470  1.0000
  O   O45       1.0  0.79980  0.89617  0.83123  1.0000
  O   O46       1.0  0.79980  0.10383  0.33123  1.0000
  O   O47       1.0  0.29980  0.39617  0.83123  1.0000
  O   O48       1.0  0.29980  0.60383  0.33123  1.0000
  C   C1        1.0  0.24910  0.66790  0.85950  1.0000
  C   C2        1.0  0.24910  0.33210  0.35950  1.0000
  C   C3        1.0  0.74910  0.16790  0.85950  1.0000
  C   C4        1.0  0.74910  0.83210  0.35950  1.0000
  H   H1        1.0  0.14190  0.66190  0.86810  1.0000
  H   H2        1.0  0.14190  0.33810  0.36810  1.0000
  H   H3        1.0  0.64190  0.16190  0.86810  1.0000
  H   H4        1.0  0.64190  0.83810  0.36810  1.0000
  C   C5        1.0  0.17500  0.66260  0.10470  1.0000
  C   C6        1.0  0.17500  0.33740  0.60470  1.0000
  C   C7        1.0  0.67500  0.16260  0.10470  1.0000
  C   C8        1.0  0.67500  0.83740  0.60470  1.0000
  H   H5        1.0  0.26830  0.64700  0.07470  1.0000
  H   H6        1.0  0.26830  0.35300  0.57470  1.0000
  H   H7        1.0  0.76830  0.14700  0.07470  1.0000
  H   H8        1.0  0.76830  0.85300  0.57470  1.0000
  C   C9        1.0  0.93090  0.89680  0.87160  1.0000
  C   C10       1.0  0.93090  0.10320  0.37160  1.0000
  C   C11       1.0  0.43090  0.39680  0.87160  1.0000
  C   C12       1.0  0.43090  0.60320  0.37160  1.0000
  H   H9        1.0  0.98070  0.95050  0.87600  1.0000
  H   H10       1.0  0.98070  0.04950  0.37600  1.0000
  H   H11       1.0  0.48070  0.45050  0.87600  1.0000
  H   H12       1.0  0.48070  0.54950  0.37600  1.0000
  C   C13       1.0  0.49670  0.88060  0.11940  1.0000
  C   C14       1.0  0.49670  0.11940  0.61940  1.0000
  C   C15       1.0  0.99670  0.38060  0.11940  1.0000
  C   C16       1.0  0.99670  0.61940  0.61940  1.0000
  H   H13       1.0  0.42320  0.90390  0.16220  1.0000
  H   H14       1.0  0.42320  0.09610  0.66220  1.0000
  H   H15       1.0  0.92320  0.40390  0.16220  1.0000
  H   H16       1.0  0.92320  0.59610  0.66220  1.0000
  C   C17       1.0  0.99540  0.94290  0.11500  1.0000
  C   C18       1.0  0.99540  0.05710  0.61500  1.0000
  C   C19       1.0  0.49540  0.44290  0.11500  1.0000
  C   C20       1.0  0.49540  0.55710  0.61500  1.0000
  H   H17       1.0  0.93040  0.89550  0.10260  1.0000
  H   H18       1.0  0.93040  0.10450  0.60260  1.0000
  H   H19       1.0  0.43040  0.39550  0.10260  1.0000
  H   H20       1.0  0.43040  0.60450  0.60260  1.0000
  C   C21       1.0  0.44060  0.96490  0.87920  1.0000
  C   C22       1.0  0.44060  0.03510  0.37920  1.0000
  C   C23       1.0  0.94060  0.46490  0.87920  1.0000
  C   C24       1.0  0.94060  0.53510  0.37920  1.0000
  H   H21       1.0  0.50440  0.95780  0.93400  1.0000
  H   H22       1.0  0.50440  0.04220  0.43400  1.0000
  H   H23       1.0  0.00440  0.45780  0.93400  1.0000
  H   H24       1.0  0.00440  0.54220  0.43400  1.0000
