data_image0
_chemical_formula_structural       Cd4O32C24H8C16H8C8H8C8H8C16H8C8H8C16H8C8H8C16H8C16H8C8H8C8H8C8
_chemical_formula_sum              "Cd4 O32 C160 H96"
_cell_length_a       28.525
_cell_length_b       9.3267
_cell_length_c       20.58
_cell_angle_alpha    90
_cell_angle_beta     114.752
_cell_angle_gamma    90

_space_group_name_H-M_alt    "P 1"
_space_group_IT_number       1

loop_
  _space_group_symop_operation_xyz
  'x, y, z'

loop_
  _atom_site_type_symbol
  _atom_site_label
  _atom_site_symmetry_multiplicity
  _atom_site_fract_x
  _atom_site_fract_y
  _atom_site_fract_z
  _atom_site_occupancy
  Cd  Cd1       1.0  0.00000  0.22586  0.75000  1.0000
  Cd  Cd2       1.0  0.50000  0.72586  0.75000  1.0000
  Cd  Cd3       1.0  0.00000  0.77414  0.25000  1.0000
  Cd  Cd4       1.0  0.50000  0.27414  0.25000  1.0000
  O   O1        1.0  0.58028  0.17910  0.27314  1.0000
  O   O2        1.0  0.41972  0.17910  0.22686  1.0000
  O   O3        1.0  0.08028  0.67910  0.27314  1.0000
  O   O4        1.0  0.91972  0.67910  0.22686  1.0000
  O   O5        1.0  0.41972  0.82090  0.72686  1.0000
  O   O6        1.0  0.58028  0.82090  0.77314  1.0000
  O   O7        1.0  0.91972  0.32090  0.72686  1.0000
  O   O8        1.0  0.08028  0.32090  0.77314  1.0000
  O   O9        1.0  0.51785  0.09600  0.17570  1.0000
  O   O10       1.0  0.48215  0.09600  0.32430  1.0000
  O   O11       1.0  0.01785  0.59600  0.17570  1.0000
  O   O12       1.0  0.98215  0.59600  0.32430  1.0000
  O   O13       1.0  0.48215  0.90400  0.82430  1.0000
  O   O14       1.0  0.51785  0.90400  0.67570  1.0000
  O   O15       1.0  0.98215  0.40400  0.82430  1.0000
  O   O16       1.0  0.01785  0.40400  0.67570  1.0000
  O   O17       1.0  0.95903  0.08270  0.65658  1.0000
  O   O18       1.0  0.04097  0.08270  0.84342  1.0000
  O   O19       1.0  0.45903  0.58270  0.65658  1.0000
  O   O20       1.0  0.54097  0.58270  0.84342  1.0000
  O   O21       1.0  0.04097  0.91730  0.34342  1.0000
  O   O22       1.0  0.95903  0.91730  0.15658  1.0000
  O   O23       1.0  0.54097  0.41730  0.34342  1.0000
  O   O24       1.0  0.45903  0.41730  0.15658  1.0000
  O   O25       1.0  0.03902  0.01140  0.68232  1.0000
  O   O26       1.0  0.96098  0.01140  0.81768  1.0000
  O   O27       1.0  0.53902  0.51140  0.68232  1.0000
  O   O28       1.0  0.46098  0.51140  0.81768  1.0000
  O   O29       1.0  0.96098  0.98860  0.31768  1.0000
  O   O30       1.0  0.03902  0.98860  0.18232  1.0000
  O   O31       1.0  0.46098  0.48860  0.31768  1.0000
  O   O32       1.0  0.53902  0.48860  0.18232  1.0000
  C   C1        1.0  0.56411  0.09930  0.21940  1.0000
  C   C2        1.0  0.43589  0.09930  0.28060  1.0000
  C   C3        1.0  0.06411  0.59930  0.21940  1.0000
  C   C4        1.0  0.93589  0.59930  0.28060  1.0000
  C   C5        1.0  0.43589  0.90070  0.78060  1.0000
  C   C6        1.0  0.56411  0.90070  0.71940  1.0000
  C   C7        1.0  0.93589  0.40070  0.78060  1.0000
  C   C8        1.0  0.06411  0.40070  0.71940  1.0000
  C   C9        1.0  0.60258  0.00450  0.20740  1.0000
  C   C10       1.0  0.39742  0.00450  0.29260  1.0000
  C   C11       1.0  0.10258  0.50450  0.20740  1.0000
  C   C12       1.0  0.89742  0.50450  0.29260  1.0000
  C   C13       1.0  0.39742  0.99550  0.79260  1.0000
  C   C14       1.0  0.60258  0.99550  0.70740  1.0000
  C   C15       1.0  0.89742  0.49550  0.79260  1.0000
  C   C16       1.0  0.10258  0.49550  0.70740  1.0000
  C   C17       1.0  0.65225  0.99050  0.26080  1.0000
  C   C18       1.0  0.34775  0.99050  0.23920  1.0000
  C   C19       1.0  0.15225  0.49050  0.26080  1.0000
  C   C20       1.0  0.84775  0.49050  0.23920  1.0000
  C   C21       1.0  0.34775  0.00950  0.73920  1.0000
  C   C22       1.0  0.65225  0.00950  0.76080  1.0000
  C   C23       1.0  0.84775  0.50950  0.73920  1.0000
  C   C24       1.0  0.15225  0.50950  0.76080  1.0000
  H   H1        1.0  0.66100  0.03810  0.30400  1.0000
  H   H2        1.0  0.33900  0.03810  0.19600  1.0000
  H   H3        1.0  0.16100  0.53810  0.30400  1.0000
  H   H4        1.0  0.83900  0.53810  0.19600  1.0000
  H   H5        1.0  0.33900  0.96190  0.69600  1.0000
  H   H6        1.0  0.66100  0.96190  0.80400  1.0000
  H   H7        1.0  0.83900  0.46190  0.69600  1.0000
  H   H8        1.0  0.16100  0.46190  0.80400  1.0000
  C   C25       1.0  0.68932  0.90640  0.25100  1.0000
  C   C26       1.0  0.31068  0.90640  0.24900  1.0000
  C   C27       1.0  0.18932  0.40640  0.25100  1.0000
  C   C28       1.0  0.81068  0.40640  0.24900  1.0000
  C   C29       1.0  0.31068  0.09360  0.74900  1.0000
  C   C30       1.0  0.68932  0.09360  0.75100  1.0000
  C   C31       1.0  0.81068  0.59360  0.74900  1.0000
  C   C32       1.0  0.18932  0.59360  0.75100  1.0000
  C   C33       1.0  0.67464  0.83890  0.18540  1.0000
  C   C34       1.0  0.32536  0.83890  0.31460  1.0000
  C   C35       1.0  0.17464  0.33890  0.18540  1.0000
  C   C36       1.0  0.82536  0.33890  0.31460  1.0000
  C   C37       1.0  0.32536  0.16110  0.81460  1.0000
  C   C38       1.0  0.67464  0.16110  0.68540  1.0000
  C   C39       1.0  0.82536  0.66110  0.81460  1.0000
  C   C40       1.0  0.17464  0.66110  0.68540  1.0000
  H   H9        1.0  0.69870  0.78360  0.17700  1.0000
  H   H10       1.0  0.30130  0.78360  0.32300  1.0000
  H   H11       1.0  0.19870  0.28360  0.17700  1.0000
  H   H12       1.0  0.80130  0.28360  0.32300  1.0000
  H   H13       1.0  0.30130  0.21640  0.82300  1.0000
  H   H14       1.0  0.69870  0.21640  0.67700  1.0000
  H   H15       1.0  0.80130  0.71640  0.82300  1.0000
  H   H16       1.0  0.19870  0.71640  0.67700  1.0000
  C   C41       1.0  0.62548  0.85150  0.13230  1.0000
  C   C42       1.0  0.37452  0.85150  0.36770  1.0000
  C   C43       1.0  0.12548  0.35150  0.13230  1.0000
  C   C44       1.0  0.87452  0.35150  0.36770  1.0000
  C   C45       1.0  0.37452  0.14850  0.86770  1.0000
  C   C46       1.0  0.62548  0.14850  0.63230  1.0000
  C   C47       1.0  0.87452  0.64850  0.86770  1.0000
  C   C48       1.0  0.12548  0.64850  0.63230  1.0000
  H   H17       1.0  0.61670  0.80490  0.08880  1.0000
  H   H18       1.0  0.38330  0.80490  0.41120  1.0000
  H   H19       1.0  0.11670  0.30490  0.08880  1.0000
  H   H20       1.0  0.88330  0.30490  0.41120  1.0000
  H   H21       1.0  0.38330  0.19510  0.91120  1.0000
  H   H22       1.0  0.61670  0.19510  0.58880  1.0000
  H   H23       1.0  0.88330  0.69510  0.91120  1.0000
  H   H24       1.0  0.11670  0.69510  0.58880  1.0000
  C   C49       1.0  0.58924  0.93280  0.14330  1.0000
  C   C50       1.0  0.41076  0.93280  0.35670  1.0000
  C   C51       1.0  0.08924  0.43280  0.14330  1.0000
  C   C52       1.0  0.91076  0.43280  0.35670  1.0000
  C   C53       1.0  0.41076  0.06720  0.85670  1.0000
  C   C54       1.0  0.58924  0.06720  0.64330  1.0000
  C   C55       1.0  0.91076  0.56720  0.85670  1.0000
  C   C56       1.0  0.08924  0.56720  0.64330  1.0000
  H   H25       1.0  0.55580  0.93950  0.10770  1.0000
  H   H26       1.0  0.44420  0.93950  0.39230  1.0000
  H   H27       1.0  0.05580  0.43950  0.10770  1.0000
  H   H28       1.0  0.94420  0.43950  0.39230  1.0000
  H   H29       1.0  0.44420  0.06050  0.89230  1.0000
  H   H30       1.0  0.55580  0.06050  0.60770  1.0000
  H   H31       1.0  0.94420  0.56050  0.89230  1.0000
  H   H32       1.0  0.05580  0.56050  0.60770  1.0000
  C   C57       1.0  0.74239  0.89160  0.30830  1.0000
  C   C58       1.0  0.25761  0.89160  0.19170  1.0000
  C   C59       1.0  0.24239  0.39160  0.30830  1.0000
  C   C60       1.0  0.75761  0.39160  0.19170  1.0000
  C   C61       1.0  0.25761  0.10840  0.69170  1.0000
  C   C62       1.0  0.74239  0.10840  0.80830  1.0000
  C   C63       1.0  0.75761  0.60840  0.69170  1.0000
  C   C64       1.0  0.24239  0.60840  0.80830  1.0000
  C   C65       1.0  0.76565  0.00070  0.35710  1.0000
  C   C66       1.0  0.23435  0.00070  0.14290  1.0000
  C   C67       1.0  0.26565  0.50070  0.35710  1.0000
  C   C68       1.0  0.73435  0.50070  0.14290  1.0000
  C   C69       1.0  0.23435  0.99930  0.64290  1.0000
  C   C70       1.0  0.76565  0.99930  0.85710  1.0000
  C   C71       1.0  0.73435  0.49930  0.64290  1.0000
  C   C72       1.0  0.26565  0.49930  0.85710  1.0000
  H   H33       1.0  0.74670  0.08270  0.35600  1.0000
  H   H34       1.0  0.25330  0.08270  0.14400  1.0000
  H   H35       1.0  0.24670  0.58270  0.35600  1.0000
  H   H36       1.0  0.75330  0.58270  0.14400  1.0000
  H   H37       1.0  0.25330  0.91730  0.64400  1.0000
  H   H38       1.0  0.74670  0.91730  0.85600  1.0000
  H   H39       1.0  0.75330  0.41730  0.64400  1.0000
  H   H40       1.0  0.24670  0.41730  0.85600  1.0000
  C   C73       1.0  0.81649  0.99060  0.40760  1.0000
  C   C74       1.0  0.18351  0.99060  0.09240  1.0000
  C   C75       1.0  0.31649  0.49060  0.40760  1.0000
  C   C76       1.0  0.68351  0.49060  0.09240  1.0000
  C   C77       1.0  0.18351  0.00940  0.59240  1.0000
  C   C78       1.0  0.81649  0.00940  0.90760  1.0000
  C   C79       1.0  0.68351  0.50940  0.59240  1.0000
  C   C80       1.0  0.31649  0.50940  0.90760  1.0000
  H   H41       1.0  0.83080  0.06570  0.43950  1.0000
  H   H42       1.0  0.16920  0.06570  0.06050  1.0000
  H   H43       1.0  0.33080  0.56570  0.43950  1.0000
  H   H44       1.0  0.66920  0.56570  0.06050  1.0000
  H   H45       1.0  0.16920  0.93430  0.56050  1.0000
  H   H46       1.0  0.83080  0.93430  0.93950  1.0000
  H   H47       1.0  0.66920  0.43430  0.56050  1.0000
  H   H48       1.0  0.33080  0.43430  0.93950  1.0000
  C   C81       1.0  0.84628  0.87120  0.41140  1.0000
  C   C82       1.0  0.15372  0.87120  0.08860  1.0000
  C   C83       1.0  0.34628  0.37120  0.41140  1.0000
  C   C84       1.0  0.65372  0.37120  0.08860  1.0000
  C   C85       1.0  0.15372  0.12880  0.58860  1.0000
  C   C86       1.0  0.84628  0.12880  0.91140  1.0000
  C   C87       1.0  0.65372  0.62880  0.58860  1.0000
  C   C88       1.0  0.34628  0.62880  0.91140  1.0000
  C   C89       1.0  0.82222  0.75820  0.36480  1.0000
  C   C90       1.0  0.17778  0.75820  0.13520  1.0000
  C   C91       1.0  0.32222  0.25820  0.36480  1.0000
  C   C92       1.0  0.67778  0.25820  0.13520  1.0000
  C   C93       1.0  0.17778  0.24180  0.63520  1.0000
  C   C94       1.0  0.82222  0.24180  0.86480  1.0000
  C   C95       1.0  0.67778  0.74180  0.63520  1.0000
  C   C96       1.0  0.32222  0.74180  0.86480  1.0000
  H   H49       1.0  0.84040  0.67400  0.36770  1.0000
  H   H50       1.0  0.15960  0.67400  0.13230  1.0000
  H   H51       1.0  0.34040  0.17400  0.36770  1.0000
  H   H52       1.0  0.65960  0.17400  0.13230  1.0000
  H   H53       1.0  0.15960  0.32600  0.63230  1.0000
  H   H54       1.0  0.84040  0.32600  0.86770  1.0000
  H   H55       1.0  0.65960  0.82600  0.63230  1.0000
  H   H56       1.0  0.34040  0.82600  0.86770  1.0000
  C   C97       1.0  0.77171  0.77000  0.31450  1.0000
  C   C98       1.0  0.22829  0.77000  0.18550  1.0000
  C   C99       1.0  0.27171  0.27000  0.31450  1.0000
  C   C100      1.0  0.72829  0.27000  0.18550  1.0000
  C   C101      1.0  0.22829  0.23000  0.68550  1.0000
  C   C102      1.0  0.77171  0.23000  0.81450  1.0000
  C   C103      1.0  0.72829  0.73000  0.68550  1.0000
  C   C104      1.0  0.27171  0.73000  0.81450  1.0000
  H   H57       1.0  0.75690  0.69340  0.28370  1.0000
  H   H58       1.0  0.24310  0.69340  0.21630  1.0000
  H   H59       1.0  0.25690  0.19340  0.28370  1.0000
  H   H60       1.0  0.74310  0.19340  0.21630  1.0000
  H   H61       1.0  0.24310  0.30660  0.71630  1.0000
  H   H62       1.0  0.75690  0.30660  0.78370  1.0000
  H   H63       1.0  0.74310  0.80660  0.71630  1.0000
  H   H64       1.0  0.25690  0.80660  0.78370  1.0000
  C   C105      1.0  0.90158  0.86320  0.46190  1.0000
  C   C106      1.0  0.09842  0.86320  0.03810  1.0000
  C   C107      1.0  0.40158  0.36320  0.46190  1.0000
  C   C108      1.0  0.59842  0.36320  0.03810  1.0000
  C   C109      1.0  0.09842  0.13680  0.53810  1.0000
  C   C110      1.0  0.90158  0.13680  0.96190  1.0000
  C   C111      1.0  0.59842  0.63680  0.53810  1.0000
  C   C112      1.0  0.40158  0.63680  0.96190  1.0000
  C   C113      1.0  0.92021  0.93480  0.52730  1.0000
  C   C114      1.0  0.07979  0.93480  0.97270  1.0000
  C   C115      1.0  0.42021  0.43480  0.52730  1.0000
  C   C116      1.0  0.57979  0.43480  0.97270  1.0000
  C   C117      1.0  0.07979  0.06520  0.47270  1.0000
  C   C118      1.0  0.92021  0.06520  0.02730  1.0000
  C   C119      1.0  0.57979  0.56520  0.47270  1.0000
  C   C120      1.0  0.42021  0.56520  0.02730  1.0000
  H   H65       1.0  0.89750  0.98690  0.54000  1.0000
  H   H66       1.0  0.10250  0.98690  0.96000  1.0000
  H   H67       1.0  0.39750  0.48690  0.54000  1.0000
  H   H68       1.0  0.60250  0.48690  0.96000  1.0000
  H   H69       1.0  0.10250  0.01310  0.46000  1.0000
  H   H70       1.0  0.89750  0.01310  0.04000  1.0000
  H   H71       1.0  0.60250  0.51310  0.46000  1.0000
  H   H72       1.0  0.39750  0.51310  0.04000  1.0000
  C   C121      1.0  0.97212  0.92940  0.57380  1.0000
  C   C122      1.0  0.02788  0.92940  0.92620  1.0000
  C   C123      1.0  0.47212  0.42940  0.57380  1.0000
  C   C124      1.0  0.52788  0.42940  0.92620  1.0000
  C   C125      1.0  0.02788  0.07060  0.42620  1.0000
  C   C126      1.0  0.97212  0.07060  0.07380  1.0000
  C   C127      1.0  0.52788  0.57060  0.42620  1.0000
  C   C128      1.0  0.47212  0.57060  0.07380  1.0000
  C   C129      1.0  0.00572  0.85190  0.55520  1.0000
  C   C130      1.0  0.99428  0.85190  0.94480  1.0000
  C   C131      1.0  0.50572  0.35190  0.55520  1.0000
  C   C132      1.0  0.49428  0.35190  0.94480  1.0000
  C   C133      1.0  0.99428  0.14810  0.44480  1.0000
  C   C134      1.0  0.00572  0.14810  0.05520  1.0000
  C   C135      1.0  0.49428  0.64810  0.44480  1.0000
  C   C136      1.0  0.50572  0.64810  0.05520  1.0000
  H   H73       1.0  0.04060  0.84770  0.58610  1.0000
  H   H74       1.0  0.95940  0.84770  0.91390  1.0000
  H   H75       1.0  0.54060  0.34770  0.58610  1.0000
  H   H76       1.0  0.45940  0.34770  0.91390  1.0000
  H   H77       1.0  0.95940  0.15230  0.41390  1.0000
  H   H78       1.0  0.04060  0.15230  0.08610  1.0000
  H   H79       1.0  0.45940  0.65230  0.41390  1.0000
  H   H80       1.0  0.54060  0.65230  0.08610  1.0000
  C   C137      1.0  0.98748  0.78050  0.49060  1.0000
  C   C138      1.0  0.01252  0.78050  0.00940  1.0000
  C   C139      1.0  0.48748  0.28050  0.49060  1.0000
  C   C140      1.0  0.51252  0.28050  0.00940  1.0000
  C   C141      1.0  0.01252  0.21950  0.50940  1.0000
  C   C142      1.0  0.98748  0.21950  0.99060  1.0000
  C   C143      1.0  0.51252  0.71950  0.50940  1.0000
  C   C144      1.0  0.48748  0.71950  0.99060  1.0000
  H   H81       1.0  0.01020  0.72760  0.47820  1.0000
  H   H82       1.0  0.98980  0.72760  0.02180  1.0000
  H   H83       1.0  0.51020  0.22760  0.47820  1.0000
  H   H84       1.0  0.48980  0.22760  0.02180  1.0000
  H   H85       1.0  0.98980  0.27240  0.52180  1.0000
  H   H86       1.0  0.01020  0.27240  0.97820  1.0000
  H   H87       1.0  0.48980  0.77240  0.52180  1.0000
  H   H88       1.0  0.51020  0.77240  0.97820  1.0000
  C   C145      1.0  0.93633  0.78680  0.44450  1.0000
  C   C146      1.0  0.06367  0.78680  0.05550  1.0000
  C   C147      1.0  0.43633  0.28680  0.44450  1.0000
  C   C148      1.0  0.56367  0.28680  0.05550  1.0000
  C   C149      1.0  0.06367  0.21320  0.55550  1.0000
  C   C150      1.0  0.93633  0.21320  0.94450  1.0000
  C   C151      1.0  0.56367  0.71320  0.55550  1.0000
  C   C152      1.0  0.43633  0.71320  0.94450  1.0000
  H   H89       1.0  0.92480  0.73910  0.40090  1.0000
  H   H90       1.0  0.07520  0.73910  0.09910  1.0000
  H   H91       1.0  0.42480  0.23910  0.40090  1.0000
  H   H92       1.0  0.57520  0.23910  0.09910  1.0000
  H   H93       1.0  0.07520  0.26090  0.59910  1.0000
  H   H94       1.0  0.92480  0.26090  0.90090  1.0000
  H   H95       1.0  0.57520  0.76090  0.59910  1.0000
  H   H96       1.0  0.42480  0.76090  0.90090  1.0000
  C   C153      1.0  0.99169  0.01160  0.64340  1.0000
  C   C154      1.0  0.00831  0.01160  0.85660  1.0000
  C   C155      1.0  0.49169  0.51160  0.64340  1.0000
  C   C156      1.0  0.50831  0.51160  0.85660  1.0000
  C   C157      1.0  0.00831  0.98840  0.35660  1.0000
  C   C158      1.0  0.99169  0.98840  0.14340  1.0000
  C   C159      1.0  0.50831  0.48840  0.35660  1.0000
  C   C160      1.0  0.49169  0.48840  0.14340  1.0000
