data_image0
_chemical_formula_structural       Zn12N56O32C24H8C24H8C24H8C24H24C8H24
_chemical_formula_sum              "Zn12 N56 O32 C104 H72"
_cell_length_a       19.76
_cell_length_b       18
_cell_length_c       17.624
_cell_angle_alpha    90
_cell_angle_beta     90
_cell_angle_gamma    90

_space_group_name_H-M_alt    "P 1"
_space_group_IT_number       1

loop_
  _space_group_symop_operation_xyz
  'x, y, z'

loop_
  _atom_site_type_symbol
  _atom_site_label
  _atom_site_symmetry_multiplicity
  _atom_site_fract_x
  _atom_site_fract_y
  _atom_site_fract_z
  _atom_site_occupancy
  Zn  Zn1       1.0  0.00000  0.70554  0.75000  1.0000
  Zn  Zn2       1.0  0.50000  0.79446  0.25000  1.0000
  Zn  Zn3       1.0  0.00000  0.29446  0.25000  1.0000
  Zn  Zn4       1.0  0.50000  0.20554  0.75000  1.0000
  Zn  Zn5       1.0  0.90741  0.49343  0.50691  1.0000
  Zn  Zn6       1.0  0.59259  0.00657  0.00691  1.0000
  Zn  Zn7       1.0  0.09259  0.49343  0.99309  1.0000
  Zn  Zn8       1.0  0.40741  0.00657  0.49309  1.0000
  Zn  Zn9       1.0  0.09259  0.50657  0.49309  1.0000
  Zn  Zn10      1.0  0.40741  0.99343  0.99309  1.0000
  Zn  Zn11      1.0  0.90741  0.50657  0.00691  1.0000
  Zn  Zn12      1.0  0.59259  0.99343  0.50691  1.0000
  N   N1        1.0  0.96737  0.55931  0.56980  1.0000
  N   N2        1.0  0.53263  0.94069  0.06980  1.0000
  N   N3        1.0  0.03263  0.55931  0.93020  1.0000
  N   N4        1.0  0.46737  0.94069  0.43020  1.0000
  N   N5        1.0  0.03263  0.44069  0.43020  1.0000
  N   N6        1.0  0.46737  0.05931  0.93020  1.0000
  N   N7        1.0  0.96737  0.44069  0.06980  1.0000
  N   N8        1.0  0.53263  0.05931  0.56980  1.0000
  N   N9        1.0  0.03631  0.56577  0.56414  1.0000
  N   N10       1.0  0.46369  0.93423  0.06414  1.0000
  N   N11       1.0  0.96369  0.56577  0.93586  1.0000
  N   N12       1.0  0.53631  0.93423  0.43586  1.0000
  N   N13       1.0  0.96369  0.43423  0.43586  1.0000
  N   N14       1.0  0.53631  0.06577  0.93586  1.0000
  N   N15       1.0  0.03631  0.43423  0.06414  1.0000
  N   N16       1.0  0.46369  0.06577  0.56414  1.0000
  N   N17       1.0  0.00244  0.63610  0.65875  1.0000
  N   N18       1.0  0.49756  0.86390  0.15875  1.0000
  N   N19       1.0  0.99756  0.63610  0.84125  1.0000
  N   N20       1.0  0.50244  0.86390  0.34125  1.0000
  N   N21       1.0  0.99756  0.36390  0.34125  1.0000
  N   N22       1.0  0.50244  0.13610  0.84125  1.0000
  N   N23       1.0  0.00244  0.36390  0.15875  1.0000
  N   N24       1.0  0.49756  0.13610  0.65875  1.0000
  N   N25       1.0  0.83798  0.44400  0.87227  1.0000
  N   N26       1.0  0.66202  0.05600  0.37227  1.0000
  N   N27       1.0  0.16202  0.44400  0.62773  1.0000
  N   N28       1.0  0.33798  0.05600  0.12773  1.0000
  N   N29       1.0  0.16202  0.55600  0.12773  1.0000
  N   N30       1.0  0.33798  0.94400  0.62773  1.0000
  N   N31       1.0  0.83798  0.55600  0.37227  1.0000
  N   N32       1.0  0.66202  0.94400  0.87227  1.0000
  N   N33       1.0  0.84629  0.44310  0.94700  1.0000
  N   N34       1.0  0.65371  0.05690  0.44700  1.0000
  N   N35       1.0  0.15371  0.44310  0.55300  1.0000
  N   N36       1.0  0.34629  0.05690  0.05300  1.0000
  N   N37       1.0  0.15371  0.55690  0.05300  1.0000
  N   N38       1.0  0.34629  0.94310  0.55300  1.0000
  N   N39       1.0  0.84629  0.55690  0.44700  1.0000
  N   N40       1.0  0.65371  0.94310  0.94700  1.0000
  N   N41       1.0  0.80050  0.40150  0.97870  1.0000
  N   N42       1.0  0.69950  0.09850  0.47870  1.0000
  N   N43       1.0  0.19950  0.40150  0.52130  1.0000
  N   N44       1.0  0.30050  0.09850  0.02130  1.0000
  N   N45       1.0  0.19950  0.59850  0.02130  1.0000
  N   N46       1.0  0.30050  0.90150  0.52130  1.0000
  N   N47       1.0  0.80050  0.59850  0.47870  1.0000
  N   N48       1.0  0.69950  0.90150  0.97870  1.0000
  N   N49       1.0  0.76330  0.37200  0.92230  1.0000
  N   N50       1.0  0.73670  0.12800  0.42230  1.0000
  N   N51       1.0  0.23670  0.37200  0.57770  1.0000
  N   N52       1.0  0.26330  0.12800  0.07770  1.0000
  N   N53       1.0  0.23670  0.62800  0.07770  1.0000
  N   N54       1.0  0.26330  0.87200  0.57770  1.0000
  N   N55       1.0  0.76330  0.62800  0.42230  1.0000
  N   N56       1.0  0.73670  0.87200  0.92230  1.0000
  O   O1        1.0  0.86195  0.44269  0.58767  1.0000
  O   O2        1.0  0.63805  0.05731  0.08767  1.0000
  O   O3        1.0  0.13805  0.44269  0.91233  1.0000
  O   O4        1.0  0.36195  0.05731  0.41233  1.0000
  O   O5        1.0  0.13805  0.55731  0.41233  1.0000
  O   O6        1.0  0.36195  0.94269  0.91233  1.0000
  O   O7        1.0  0.86195  0.55731  0.08767  1.0000
  O   O8        1.0  0.63805  0.94269  0.58767  1.0000
  O   O9        1.0  0.77950  0.40260  0.51640  1.0000
  O   O10       1.0  0.72050  0.09740  0.01640  1.0000
  O   O11       1.0  0.22050  0.40260  0.98360  1.0000
  O   O12       1.0  0.27950  0.09740  0.48360  1.0000
  O   O13       1.0  0.22050  0.59740  0.48360  1.0000
  O   O14       1.0  0.27950  0.90260  0.98360  1.0000
  O   O15       1.0  0.77950  0.59740  0.01640  1.0000
  O   O16       1.0  0.72050  0.90260  0.51640  1.0000
  O   O17       1.0  0.58166  0.26395  0.75839  1.0000
  O   O18       1.0  0.91834  0.23605  0.25839  1.0000
  O   O19       1.0  0.41834  0.26395  0.74161  1.0000
  O   O20       1.0  0.08166  0.23605  0.24161  1.0000
  O   O21       1.0  0.41834  0.73605  0.24161  1.0000
  O   O22       1.0  0.08166  0.76395  0.74161  1.0000
  O   O23       1.0  0.58166  0.73605  0.25839  1.0000
  O   O24       1.0  0.91834  0.76395  0.75839  1.0000
  O   O25       1.0  0.57271  0.29790  0.63903  1.0000
  O   O26       1.0  0.92729  0.20210  0.13903  1.0000
  O   O27       1.0  0.42729  0.29790  0.86097  1.0000
  O   O28       1.0  0.07271  0.20210  0.36097  1.0000
  O   O29       1.0  0.42729  0.70210  0.36097  1.0000
  O   O30       1.0  0.07271  0.79790  0.86097  1.0000
  O   O31       1.0  0.57271  0.70210  0.13903  1.0000
  O   O32       1.0  0.92729  0.79790  0.63903  1.0000
  C   C1        1.0  0.80450  0.41210  0.57860  1.0000
  C   C2        1.0  0.69550  0.08790  0.07860  1.0000
  C   C3        1.0  0.19550  0.41210  0.92140  1.0000
  C   C4        1.0  0.30450  0.08790  0.42140  1.0000
  C   C5        1.0  0.19550  0.58790  0.42140  1.0000
  C   C6        1.0  0.30450  0.91210  0.92140  1.0000
  C   C7        1.0  0.80450  0.58790  0.07860  1.0000
  C   C8        1.0  0.69550  0.91210  0.57860  1.0000
  C   C9        1.0  0.76810  0.38950  0.64910  1.0000
  C   C10       1.0  0.73190  0.11050  0.14910  1.0000
  C   C11       1.0  0.23190  0.38950  0.85090  1.0000
  C   C12       1.0  0.26810  0.11050  0.35090  1.0000
  C   C13       1.0  0.23190  0.61050  0.35090  1.0000
  C   C14       1.0  0.26810  0.88950  0.85090  1.0000
  C   C15       1.0  0.76810  0.61050  0.14910  1.0000
  C   C16       1.0  0.73190  0.88950  0.64910  1.0000
  C   C17       1.0  0.79430  0.40290  0.71900  1.0000
  C   C18       1.0  0.70570  0.09710  0.21900  1.0000
  C   C19       1.0  0.20570  0.40290  0.78100  1.0000
  C   C20       1.0  0.29430  0.09710  0.28100  1.0000
  C   C21       1.0  0.20570  0.59710  0.28100  1.0000
  C   C22       1.0  0.29430  0.90290  0.78100  1.0000
  C   C23       1.0  0.79430  0.59710  0.21900  1.0000
  C   C24       1.0  0.70570  0.90290  0.71900  1.0000
  H   H1        1.0  0.83626  0.42597  0.72308  1.0000
  H   H2        1.0  0.66374  0.07403  0.22308  1.0000
  H   H3        1.0  0.16374  0.42597  0.77692  1.0000
  H   H4        1.0  0.33626  0.07403  0.27692  1.0000
  H   H5        1.0  0.16374  0.57403  0.27692  1.0000
  H   H6        1.0  0.33626  0.92597  0.77692  1.0000
  H   H7        1.0  0.83626  0.57403  0.22308  1.0000
  H   H8        1.0  0.66374  0.92597  0.72308  1.0000
  C   C25       1.0  0.75980  0.38290  0.78430  1.0000
  C   C26       1.0  0.74020  0.11710  0.28430  1.0000
  C   C27       1.0  0.24020  0.38290  0.71570  1.0000
  C   C28       1.0  0.25980  0.11710  0.21570  1.0000
  C   C29       1.0  0.24020  0.61710  0.21570  1.0000
  C   C30       1.0  0.25980  0.88290  0.71570  1.0000
  C   C31       1.0  0.75980  0.61710  0.28430  1.0000
  C   C32       1.0  0.74020  0.88290  0.78430  1.0000
  C   C33       1.0  0.78730  0.39840  0.85920  1.0000
  C   C34       1.0  0.71270  0.10160  0.35920  1.0000
  C   C35       1.0  0.21270  0.39840  0.64080  1.0000
  C   C36       1.0  0.28730  0.10160  0.14080  1.0000
  C   C37       1.0  0.21270  0.60160  0.14080  1.0000
  C   C38       1.0  0.28730  0.89840  0.64080  1.0000
  C   C39       1.0  0.78730  0.60160  0.35920  1.0000
  C   C40       1.0  0.71270  0.89840  0.85920  1.0000
  C   C41       1.0  0.69790  0.34740  0.77720  1.0000
  C   C42       1.0  0.80210  0.15260  0.27720  1.0000
  C   C43       1.0  0.30210  0.34740  0.72280  1.0000
  C   C44       1.0  0.19790  0.15260  0.22280  1.0000
  C   C45       1.0  0.30210  0.65260  0.22280  1.0000
  C   C46       1.0  0.19790  0.84740  0.72280  1.0000
  C   C47       1.0  0.69790  0.65260  0.27720  1.0000
  C   C48       1.0  0.80210  0.84740  0.77720  1.0000
  H   H9        1.0  0.67475  0.33225  0.82053  1.0000
  H   H10       1.0  0.82525  0.16775  0.32053  1.0000
  H   H11       1.0  0.32525  0.33225  0.67947  1.0000
  H   H12       1.0  0.17475  0.16775  0.17947  1.0000
  H   H13       1.0  0.32525  0.66775  0.17947  1.0000
  H   H14       1.0  0.17475  0.83225  0.67947  1.0000
  H   H15       1.0  0.67475  0.66775  0.32053  1.0000
  H   H16       1.0  0.82525  0.83225  0.82053  1.0000
  C   C49       1.0  0.67028  0.33430  0.70710  1.0000
  C   C50       1.0  0.82972  0.16570  0.20710  1.0000
  C   C51       1.0  0.32972  0.33430  0.79290  1.0000
  C   C52       1.0  0.17028  0.16570  0.29290  1.0000
  C   C53       1.0  0.32972  0.66570  0.29290  1.0000
  C   C54       1.0  0.17028  0.83430  0.79290  1.0000
  C   C55       1.0  0.67028  0.66570  0.20710  1.0000
  C   C56       1.0  0.82972  0.83430  0.70710  1.0000
  C   C57       1.0  0.60261  0.29680  0.70060  1.0000
  C   C58       1.0  0.89739  0.20320  0.20060  1.0000
  C   C59       1.0  0.39739  0.29680  0.79940  1.0000
  C   C60       1.0  0.10261  0.20320  0.29940  1.0000
  C   C61       1.0  0.39739  0.70320  0.29940  1.0000
  C   C62       1.0  0.10261  0.79680  0.79940  1.0000
  C   C63       1.0  0.60261  0.70320  0.20060  1.0000
  C   C64       1.0  0.89739  0.79680  0.70060  1.0000
  C   C65       1.0  0.70550  0.35520  0.64280  1.0000
  C   C66       1.0  0.79450  0.14480  0.14280  1.0000
  C   C67       1.0  0.29450  0.35520  0.85720  1.0000
  C   C68       1.0  0.20550  0.14480  0.35720  1.0000
  C   C69       1.0  0.29450  0.64480  0.35720  1.0000
  C   C70       1.0  0.20550  0.85520  0.85720  1.0000
  C   C71       1.0  0.70550  0.64480  0.14280  1.0000
  C   C72       1.0  0.79450  0.85520  0.64280  1.0000
  H   H17       1.0  0.68713  0.34624  0.59510  1.0000
  H   H18       1.0  0.81287  0.15376  0.09510  1.0000
  H   H19       1.0  0.31287  0.34624  0.90490  1.0000
  H   H20       1.0  0.18713  0.15376  0.40490  1.0000
  H   H21       1.0  0.31287  0.65376  0.40490  1.0000
  H   H22       1.0  0.18713  0.84624  0.90490  1.0000
  H   H23       1.0  0.68713  0.65376  0.09510  1.0000
  H   H24       1.0  0.81287  0.84624  0.59510  1.0000
  C   C73       1.0  0.94918  0.60210  0.62660  1.0000
  C   C74       1.0  0.55082  0.89790  0.12660  1.0000
  C   C75       1.0  0.05082  0.60210  0.87340  1.0000
  C   C76       1.0  0.44918  0.89790  0.37340  1.0000
  C   C77       1.0  0.05082  0.39790  0.37340  1.0000
  C   C78       1.0  0.44918  0.10210  0.87340  1.0000
  C   C79       1.0  0.94918  0.39790  0.12660  1.0000
  C   C80       1.0  0.55082  0.10210  0.62660  1.0000
  C   C81       1.0  0.05510  0.61170  0.61810  1.0000
  C   C82       1.0  0.44490  0.88830  0.11810  1.0000
  C   C83       1.0  0.94490  0.61170  0.88190  1.0000
  C   C84       1.0  0.55510  0.88830  0.38190  1.0000
  C   C85       1.0  0.94490  0.38830  0.38190  1.0000
  C   C86       1.0  0.55510  0.11170  0.88190  1.0000
  C   C87       1.0  0.05510  0.38830  0.11810  1.0000
  C   C88       1.0  0.44490  0.11170  0.61810  1.0000
  C   C89       1.0  0.87770  0.61050  0.65160  1.0000
  C   C90       1.0  0.62230  0.88950  0.15160  1.0000
  C   C91       1.0  0.12230  0.61050  0.84840  1.0000
  C   C92       1.0  0.37770  0.88950  0.34840  1.0000
  C   C93       1.0  0.12230  0.38950  0.34840  1.0000
  C   C94       1.0  0.37770  0.11050  0.84840  1.0000
  C   C95       1.0  0.87770  0.38950  0.15160  1.0000
  C   C96       1.0  0.62230  0.11050  0.65160  1.0000
  H   H25       1.0  0.85764  0.65218  0.62614  1.0000
  H   H26       1.0  0.64236  0.84782  0.12614  1.0000
  H   H27       1.0  0.14236  0.65218  0.87386  1.0000
  H   H28       1.0  0.35764  0.84782  0.37386  1.0000
  H   H29       1.0  0.14236  0.34782  0.37386  1.0000
  H   H30       1.0  0.35764  0.15218  0.87386  1.0000
  H   H31       1.0  0.85764  0.34782  0.12614  1.0000
  H   H32       1.0  0.64236  0.15218  0.62614  1.0000
  H   H33       1.0  0.87648  0.61862  0.70546  1.0000
  H   H34       1.0  0.62352  0.88138  0.20546  1.0000
  H   H35       1.0  0.12352  0.61862  0.79454  1.0000
  H   H36       1.0  0.37648  0.88138  0.29454  1.0000
  H   H37       1.0  0.12352  0.38138  0.29454  1.0000
  H   H38       1.0  0.37648  0.11862  0.79454  1.0000
  H   H39       1.0  0.87648  0.38138  0.20546  1.0000
  H   H40       1.0  0.62352  0.11862  0.70546  1.0000
  H   H41       1.0  0.85295  0.56622  0.63949  1.0000
  H   H42       1.0  0.64705  0.93378  0.13949  1.0000
  H   H43       1.0  0.14705  0.56622  0.86051  1.0000
  H   H44       1.0  0.35295  0.93378  0.36051  1.0000
  H   H45       1.0  0.14705  0.43378  0.36051  1.0000
  H   H46       1.0  0.35295  0.06622  0.86051  1.0000
  H   H47       1.0  0.85295  0.43378  0.13949  1.0000
  H   H48       1.0  0.64705  0.06622  0.63949  1.0000
  C   C97       1.0  0.12670  0.63260  0.63190  1.0000
  C   C98       1.0  0.37330  0.86740  0.13190  1.0000
  C   C99       1.0  0.87330  0.63260  0.86810  1.0000
  C   C100      1.0  0.62670  0.86740  0.36810  1.0000
  C   C101      1.0  0.87330  0.36740  0.36810  1.0000
  C   C102      1.0  0.62670  0.13260  0.86810  1.0000
  C   C103      1.0  0.12670  0.36740  0.13190  1.0000
  C   C104      1.0  0.37330  0.13260  0.63190  1.0000
  H   H49       1.0  0.15223  0.62662  0.58596  1.0000
  H   H50       1.0  0.34777  0.87338  0.08596  1.0000
  H   H51       1.0  0.84777  0.62662  0.91404  1.0000
  H   H52       1.0  0.65223  0.87338  0.41404  1.0000
  H   H53       1.0  0.84777  0.37338  0.41404  1.0000
  H   H54       1.0  0.65223  0.12662  0.91404  1.0000
  H   H55       1.0  0.15223  0.37338  0.08596  1.0000
  H   H56       1.0  0.34777  0.12662  0.58596  1.0000
  H   H57       1.0  0.14539  0.60115  0.67068  1.0000
  H   H58       1.0  0.35461  0.89885  0.17068  1.0000
  H   H59       1.0  0.85461  0.60115  0.82932  1.0000
  H   H60       1.0  0.64539  0.89885  0.32932  1.0000
  H   H61       1.0  0.85461  0.39885  0.32932  1.0000
  H   H62       1.0  0.64539  0.10115  0.82932  1.0000
  H   H63       1.0  0.14539  0.39885  0.17068  1.0000
  H   H64       1.0  0.35461  0.10115  0.67068  1.0000
  H   H65       1.0  0.12892  0.68344  0.64811  1.0000
  H   H66       1.0  0.37108  0.81656  0.14811  1.0000
  H   H67       1.0  0.87108  0.68344  0.85189  1.0000
  H   H68       1.0  0.62892  0.81656  0.35189  1.0000
  H   H69       1.0  0.87108  0.31656  0.35189  1.0000
  H   H70       1.0  0.62892  0.18344  0.85189  1.0000
  H   H71       1.0  0.12892  0.31656  0.14811  1.0000
  H   H72       1.0  0.37108  0.18344  0.64811  1.0000
