data_image0
_chemical_formula_structural       C6H2C6H2C6H2N8O8C4N8H4N2H4C6H2C6H2C6H2N8O8C4N8H4N2H4Zn6
_chemical_formula_sum              "C44 H28 N36 O16 Zn6"
_cell_length_a       10.464
_cell_length_b       13.59
_cell_length_c       16.89
_cell_angle_alpha    84.707
_cell_angle_beta     79.458
_cell_angle_gamma    69.904

_space_group_name_H-M_alt    "P 1"
_space_group_IT_number       1

loop_
  _space_group_symop_operation_xyz
  'x, y, z'

loop_
  _atom_site_type_symbol
  _atom_site_label
  _atom_site_symmetry_multiplicity
  _atom_site_fract_x
  _atom_site_fract_y
  _atom_site_fract_z
  _atom_site_occupancy
  C   C1        1.0  0.06960  0.78880  0.37460  1.0000
  C   C2        1.0  0.93040  0.21120  0.62540  1.0000
  C   C3        1.0  0.11590  0.83100  0.29320  1.0000
  C   C4        1.0  0.88410  0.16900  0.70680  1.0000
  C   C5        1.0  0.14200  0.77260  0.22090  1.0000
  C   C6        1.0  0.85800  0.22740  0.77910  1.0000
  H   H1        1.0  0.11670  0.71299  0.22356  1.0000
  H   H2        1.0  0.88330  0.28701  0.77644  1.0000
  C   C7        1.0  0.20230  0.80320  0.14970  1.0000
  C   C8        1.0  0.79770  0.19680  0.85030  1.0000
  C   C9        1.0  0.21540  0.74820  0.07270  1.0000
  C   C10       1.0  0.78460  0.25180  0.92730  1.0000
  C   C11       1.0  0.24860  0.89240  0.14580  1.0000
  C   C12       1.0  0.75140  0.10760  0.85420  1.0000
  H   H3        1.0  0.29296  0.91282  0.09754  1.0000
  H   H4        1.0  0.70704  0.08718  0.90246  1.0000
  C   C13       1.0  0.22560  0.94660  0.21500  1.0000
  C   C14       1.0  0.77440  0.05340  0.78500  1.0000
  C   C15       1.0  0.27630  0.03850  0.20720  1.0000
  C   C16       1.0  0.72370  0.96150  0.79280  1.0000
  C   C17       1.0  0.15980  0.91620  0.28560  1.0000
  C   C18       1.0  0.84020  0.08380  0.71440  1.0000
  H   H5        1.0  0.14403  0.95536  0.33087  1.0000
  H   H6        1.0  0.85597  0.04464  0.66913  1.0000
  N   N1        1.0  0.17560  0.66610  0.07250  1.0000
  N   N2        1.0  0.82440  0.33390  0.92750  1.0000
  N   N3        1.0  0.20820  0.64400  0.99350  1.0000
  N   N4        1.0  0.79180  0.35600  0.00650  1.0000
  N   N5        1.0  0.26070  0.70430  0.95190  1.0000
  N   N6        1.0  0.73930  0.29570  0.04810  1.0000
  N   N7        1.0  0.26670  0.77710  0.00150  1.0000
  N   N8        1.0  0.73330  0.22290  0.99850  1.0000
  O   O1        1.0  0.03420  0.70620  0.37380  1.0000
  O   O2        1.0  0.96580  0.29380  0.62620  1.0000
  O   O3        1.0  0.06530  0.83360  0.43450  1.0000
  O   O4        1.0  0.93470  0.16640  0.56550  1.0000
  O   O5        1.0  0.36910  0.04330  0.15440  1.0000
  O   O6        1.0  0.63090  0.95670  0.84560  1.0000
  O   O7        1.0  0.21710  0.10630  0.26230  1.0000
  O   O8        1.0  0.78290  0.89370  0.73770  1.0000
  C   C19       1.0  0.16230  0.42730  0.33300  1.0000
  C   C20       1.0  0.83770  0.57270  0.66700  1.0000
  C   C21       1.0  0.08090  0.31170  0.38970  1.0000
  C   C22       1.0  0.91910  0.68830  0.61030  1.0000
  N   N9        1.0  0.09120  0.46290  0.40080  1.0000
  N   N10       1.0  0.90880  0.53710  0.59920  1.0000
  N   N11       1.0  0.03660  0.38820  0.44140  1.0000
  N   N12       1.0  0.96340  0.61180  0.55860  1.0000
  N   N13       1.0  0.15950  0.32700  0.32260  1.0000
  N   N14       1.0  0.84050  0.67300  0.67740  1.0000
  N   N15       1.0  0.23610  0.47350  0.27720  1.0000
  N   N16       1.0  0.76390  0.52650  0.72280  1.0000
  H   H7        1.0  0.23871  0.53421  0.28563  1.0000
  H   H8        1.0  0.76129  0.46579  0.71437  1.0000
  H   H9        1.0  0.28023  0.44221  0.23344  1.0000
  H   H10       1.0  0.71977  0.55779  0.76656  1.0000
  N   N17       1.0  0.04640  0.22360  0.40490  1.0000
  N   N18       1.0  0.95360  0.77640  0.59510  1.0000
  H   H11       1.0  0.07607  0.17514  0.37007  1.0000
  H   H12       1.0  0.92393  0.82486  0.62993  1.0000
  H   H13       1.0  0.99494  0.21608  0.44931  1.0000
  H   H14       1.0  0.00506  0.78392  0.55069  1.0000
  C   C23       1.0  0.23200  0.52900  0.77360  1.0000
  C   C24       1.0  0.76800  0.47100  0.22640  1.0000
  C   C25       1.0  0.28860  0.59290  0.71110  1.0000
  C   C26       1.0  0.71140  0.40710  0.28890  1.0000
  C   C27       1.0  0.29100  0.58850  0.63150  1.0000
  C   C28       1.0  0.70900  0.41150  0.36850  1.0000
  H   H15       1.0  0.25447  0.54204  0.61460  1.0000
  H   H16       1.0  0.74553  0.45796  0.38540  1.0000
  C   C29       1.0  0.34520  0.64950  0.57250  1.0000
  C   C30       1.0  0.65480  0.35050  0.42750  1.0000
  C   C31       1.0  0.36250  0.63530  0.48430  1.0000
  C   C32       1.0  0.63750  0.36470  0.51570  1.0000
  C   C33       1.0  0.41000  0.71160  0.59790  1.0000
  C   C34       1.0  0.59000  0.28840  0.40210  1.0000
  H   H17       1.0  0.44703  0.75312  0.56023  1.0000
  H   H18       1.0  0.55297  0.24688  0.43977  1.0000
  C   C35       1.0  0.42130  0.71290  0.68180  1.0000
  C   C36       1.0  0.57870  0.28710  0.31820  1.0000
  C   C37       1.0  0.49520  0.77460  0.70420  1.0000
  C   C38       1.0  0.50480  0.22540  0.29580  1.0000
  C   C39       1.0  0.35930  0.65310  0.73310  1.0000
  C   C40       1.0  0.64070  0.34690  0.26690  1.0000
  H   H19       1.0  0.36479  0.65259  0.78748  1.0000
  H   H20       1.0  0.63521  0.34741  0.21252  1.0000
  N   N19       1.0  0.28710  0.59660  0.45040  1.0000
  N   N20       1.0  0.71290  0.40340  0.54960  1.0000
  N   N21       1.0  0.33540  0.59980  0.36830  1.0000
  N   N22       1.0  0.66460  0.40020  0.63170  1.0000
  N   N23       1.0  0.43830  0.63350  0.35690  1.0000
  N   N24       1.0  0.56170  0.36650  0.64310  1.0000
  N   N25       1.0  0.46190  0.65180  0.43160  1.0000
  N   N26       1.0  0.53810  0.34820  0.56840  1.0000
  O   O9        1.0  0.14610  0.49130  0.75250  1.0000
  O   O10       1.0  0.85390  0.50870  0.24750  1.0000
  O   O11       1.0  0.25790  0.52390  0.84410  1.0000
  O   O12       1.0  0.74210  0.47610  0.15590  1.0000
  O   O13       1.0  0.52700  0.84060  0.65630  1.0000
  O   O14       1.0  0.47300  0.15940  0.34370  1.0000
  O   O15       1.0  0.53530  0.75010  0.76890  1.0000
  O   O16       1.0  0.46470  0.24990  0.23110  1.0000
  C   C41       1.0  0.90760  0.69200  0.87920  1.0000
  C   C42       1.0  0.09240  0.30800  0.12080  1.0000
  C   C43       1.0  0.74590  0.63160  0.91870  1.0000
  C   C44       1.0  0.25410  0.36840  0.08130  1.0000
  N   N27       1.0  0.95610  0.61260  0.93890  1.0000
  N   N28       1.0  0.04390  0.38740  0.06110  1.0000
  N   N29       1.0  0.83590  0.58010  0.96570  1.0000
  N   N30       1.0  0.16410  0.41990  0.03430  1.0000
  N   N31       1.0  0.79170  0.69920  0.86620  1.0000
  N   N32       1.0  0.20830  0.30080  0.13380  1.0000
  N   N33       1.0  0.99610  0.74090  0.84190  1.0000
  N   N34       1.0  0.00390  0.25910  0.15810  1.0000
  H   H21       1.0  0.97434  0.78488  0.80257  1.0000
  H   H22       1.0  0.02566  0.21512  0.19743  1.0000
  H   H23       1.0  0.07410  0.72807  0.85761  1.0000
  H   H24       1.0  0.92590  0.27193  0.14239  1.0000
  N   N35       1.0  0.61700  0.62150  0.92430  1.0000
  N   N36       1.0  0.38300  0.37850  0.07570  1.0000
  H   H25       1.0  0.59214  0.57959  0.96020  1.0000
  H   H26       1.0  0.40786  0.42041  0.03980  1.0000
  H   H27       1.0  0.56203  0.65710  0.89194  1.0000
  H   H28       1.0  0.43797  0.34290  0.10806  1.0000
  Zn  Zn1       1.0  0.28109  0.22790  0.23599  1.0000
  Zn  Zn2       1.0  0.71891  0.77210  0.76401  1.0000
  Zn  Zn3       1.0  0.14600  0.53252  0.95197  1.0000
  Zn  Zn4       1.0  0.85400  0.46748  0.04803  1.0000
  Zn  Zn5       1.0  0.08886  0.59118  0.45514  1.0000
  Zn  Zn6       1.0  0.91114  0.40882  0.54486  1.0000
