data_image0
_chemical_formula_structural       Zn12C16H8C16H8C16H8C40H24C16H24N56O32
_chemical_formula_sum              "Zn12 C104 H72 N56 O32"
_cell_length_a       12.042
_cell_length_b       23.99
_cell_length_c       18.036
_cell_angle_alpha    90
_cell_angle_beta     90
_cell_angle_gamma    90

_space_group_name_H-M_alt    "P 1"
_space_group_IT_number       1

loop_
  _space_group_symop_operation_xyz
  'x, y, z'

loop_
  _atom_site_type_symbol
  _atom_site_label
  _atom_site_symmetry_multiplicity
  _atom_site_fract_x
  _atom_site_fract_y
  _atom_site_fract_z
  _atom_site_occupancy
  Zn  Zn1       1.0  0.50000  0.85156  0.00076  1.0000
  Zn  Zn2       1.0  0.50000  0.14844  0.50076  1.0000
  Zn  Zn3       1.0  0.00000  0.35156  0.00076  1.0000
  Zn  Zn4       1.0  0.00000  0.64844  0.50076  1.0000
  Zn  Zn5       1.0  0.34577  0.00012  0.75053  1.0000
  Zn  Zn6       1.0  0.65423  0.99988  0.25053  1.0000
  Zn  Zn7       1.0  0.34577  0.99988  0.25053  1.0000
  Zn  Zn8       1.0  0.65423  0.00012  0.75053  1.0000
  Zn  Zn9       1.0  0.84577  0.50012  0.75053  1.0000
  Zn  Zn10      1.0  0.15423  0.49988  0.25053  1.0000
  Zn  Zn11      1.0  0.84577  0.49988  0.25053  1.0000
  Zn  Zn12      1.0  0.15423  0.50012  0.75053  1.0000
  C   C1        1.0  0.20840  0.88160  0.60350  1.0000
  C   C2        1.0  0.79160  0.11840  0.10350  1.0000
  C   C3        1.0  0.20840  0.11840  0.10350  1.0000
  C   C4        1.0  0.79160  0.88160  0.60350  1.0000
  C   C5        1.0  0.70840  0.38160  0.60350  1.0000
  C   C6        1.0  0.29160  0.61840  0.10350  1.0000
  C   C7        1.0  0.70840  0.61840  0.10350  1.0000
  C   C8        1.0  0.29160  0.38160  0.60350  1.0000
  C   C9        1.0  0.17770  0.82620  0.61150  1.0000
  C   C10       1.0  0.82230  0.17380  0.11150  1.0000
  C   C11       1.0  0.17770  0.17380  0.11150  1.0000
  C   C12       1.0  0.82230  0.82620  0.61150  1.0000
  C   C13       1.0  0.67770  0.32620  0.61150  1.0000
  C   C14       1.0  0.32230  0.67380  0.11150  1.0000
  C   C15       1.0  0.67770  0.67380  0.11150  1.0000
  C   C16       1.0  0.32230  0.32620  0.61150  1.0000
  H   H1        1.0  0.17186  0.81067  0.65856  1.0000
  H   H2        1.0  0.82814  0.18933  0.15856  1.0000
  H   H3        1.0  0.17186  0.18933  0.15856  1.0000
  H   H4        1.0  0.82814  0.81067  0.65856  1.0000
  H   H5        1.0  0.67186  0.31067  0.65856  1.0000
  H   H6        1.0  0.32814  0.68933  0.15856  1.0000
  H   H7        1.0  0.67186  0.68933  0.15856  1.0000
  H   H8        1.0  0.32814  0.31067  0.65856  1.0000
  C   C17       1.0  0.15560  0.79410  0.54940  1.0000
  C   C18       1.0  0.84440  0.20590  0.04940  1.0000
  C   C19       1.0  0.15560  0.20590  0.04940  1.0000
  C   C20       1.0  0.84440  0.79410  0.54940  1.0000
  C   C21       1.0  0.65560  0.29410  0.54940  1.0000
  C   C22       1.0  0.34440  0.70590  0.04940  1.0000
  C   C23       1.0  0.65560  0.70590  0.04940  1.0000
  C   C24       1.0  0.34440  0.29410  0.54940  1.0000
  C   C25       1.0  0.16420  0.81730  0.47940  1.0000
  C   C26       1.0  0.83580  0.18270  0.97940  1.0000
  C   C27       1.0  0.16420  0.18270  0.97940  1.0000
  C   C28       1.0  0.83580  0.81730  0.47940  1.0000
  C   C29       1.0  0.66420  0.31730  0.47940  1.0000
  C   C30       1.0  0.33580  0.68270  0.97940  1.0000
  C   C31       1.0  0.66420  0.68270  0.97940  1.0000
  C   C32       1.0  0.33580  0.31730  0.47940  1.0000
  H   H9        1.0  0.14932  0.79578  0.43768  1.0000
  H   H10       1.0  0.85068  0.20422  0.93768  1.0000
  H   H11       1.0  0.14932  0.20422  0.93768  1.0000
  H   H12       1.0  0.85068  0.79578  0.43768  1.0000
  H   H13       1.0  0.64932  0.29578  0.43768  1.0000
  H   H14       1.0  0.35068  0.70422  0.93768  1.0000
  H   H15       1.0  0.64932  0.70422  0.93768  1.0000
  H   H16       1.0  0.35068  0.29578  0.43768  1.0000
  C   C33       1.0  0.19490  0.87260  0.47140  1.0000
  C   C34       1.0  0.80510  0.12740  0.97140  1.0000
  C   C35       1.0  0.19490  0.12740  0.97140  1.0000
  C   C36       1.0  0.80510  0.87260  0.47140  1.0000
  C   C37       1.0  0.69490  0.37260  0.47140  1.0000
  C   C38       1.0  0.30510  0.62740  0.97140  1.0000
  C   C39       1.0  0.69490  0.62740  0.97140  1.0000
  C   C40       1.0  0.30510  0.37260  0.47140  1.0000
  C   C41       1.0  0.21700  0.90470  0.53340  1.0000
  C   C42       1.0  0.78300  0.09530  0.03340  1.0000
  C   C43       1.0  0.21700  0.09530  0.03340  1.0000
  C   C44       1.0  0.78300  0.90470  0.53340  1.0000
  C   C45       1.0  0.71700  0.40470  0.53340  1.0000
  C   C46       1.0  0.28300  0.59530  0.03340  1.0000
  C   C47       1.0  0.71700  0.59530  0.03340  1.0000
  C   C48       1.0  0.28300  0.40470  0.53340  1.0000
  H   H17       1.0  0.23761  0.94189  0.52806  1.0000
  H   H18       1.0  0.76239  0.05811  0.02806  1.0000
  H   H19       1.0  0.23761  0.05811  0.02806  1.0000
  H   H20       1.0  0.76239  0.94189  0.52806  1.0000
  H   H21       1.0  0.73761  0.44189  0.52806  1.0000
  H   H22       1.0  0.26239  0.55811  0.02806  1.0000
  H   H23       1.0  0.73761  0.55811  0.02806  1.0000
  H   H24       1.0  0.26239  0.44189  0.52806  1.0000
  C   C49       1.0  0.23540  0.91340  0.67230  1.0000
  C   C50       1.0  0.76460  0.08660  0.17230  1.0000
  C   C51       1.0  0.23540  0.08660  0.17230  1.0000
  C   C52       1.0  0.76460  0.91340  0.67230  1.0000
  C   C53       1.0  0.73540  0.41340  0.67230  1.0000
  C   C54       1.0  0.26460  0.58660  0.17230  1.0000
  C   C55       1.0  0.73540  0.58660  0.17230  1.0000
  C   C56       1.0  0.26460  0.41340  0.67230  1.0000
  C   C57       1.0  0.11790  0.73340  0.55680  1.0000
  C   C58       1.0  0.88210  0.26660  0.05680  1.0000
  C   C59       1.0  0.11790  0.26660  0.05680  1.0000
  C   C60       1.0  0.88210  0.73340  0.55680  1.0000
  C   C61       1.0  0.61790  0.23340  0.55680  1.0000
  C   C62       1.0  0.38210  0.76660  0.05680  1.0000
  C   C63       1.0  0.61790  0.76660  0.05680  1.0000
  C   C64       1.0  0.38210  0.23340  0.55680  1.0000
  C   C65       1.0  0.20540  0.89250  0.39630  1.0000
  C   C66       1.0  0.79460  0.10750  0.89630  1.0000
  C   C67       1.0  0.20540  0.10750  0.89630  1.0000
  C   C68       1.0  0.79460  0.89250  0.39630  1.0000
  C   C69       1.0  0.70540  0.39250  0.39630  1.0000
  C   C70       1.0  0.29460  0.60750  0.89630  1.0000
  C   C71       1.0  0.70540  0.60750  0.89630  1.0000
  C   C72       1.0  0.29460  0.39250  0.39630  1.0000
  C   C73       1.0  0.41010  0.07760  0.62780  1.0000
  C   C74       1.0  0.58990  0.92240  0.12780  1.0000
  C   C75       1.0  0.41010  0.92240  0.12780  1.0000
  C   C76       1.0  0.58990  0.07760  0.62780  1.0000
  C   C77       1.0  0.91010  0.57760  0.62780  1.0000
  C   C78       1.0  0.08990  0.42240  0.12780  1.0000
  C   C79       1.0  0.91010  0.42240  0.12780  1.0000
  C   C80       1.0  0.08990  0.57760  0.62780  1.0000
  C   C81       1.0  0.29710  0.08810  0.60610  1.0000
  C   C82       1.0  0.70290  0.91190  0.10610  1.0000
  C   C83       1.0  0.29710  0.91190  0.10610  1.0000
  C   C84       1.0  0.70290  0.08810  0.60610  1.0000
  C   C85       1.0  0.79710  0.58810  0.60610  1.0000
  C   C86       1.0  0.20290  0.41190  0.10610  1.0000
  C   C87       1.0  0.79710  0.41190  0.10610  1.0000
  C   C88       1.0  0.20290  0.58810  0.60610  1.0000
  H   H25       1.0  0.29611  0.11214  0.56365  1.0000
  H   H26       1.0  0.70389  0.88786  0.06365  1.0000
  H   H27       1.0  0.29611  0.88786  0.06365  1.0000
  H   H28       1.0  0.70389  0.11214  0.56365  1.0000
  H   H29       1.0  0.79611  0.61214  0.56365  1.0000
  H   H30       1.0  0.20389  0.38786  0.06365  1.0000
  H   H31       1.0  0.79611  0.38786  0.06365  1.0000
  H   H32       1.0  0.20389  0.61214  0.56365  1.0000
  H   H33       1.0  0.26153  0.05342  0.59398  1.0000
  H   H34       1.0  0.73847  0.94658  0.09398  1.0000
  H   H35       1.0  0.26153  0.94658  0.09398  1.0000
  H   H36       1.0  0.73847  0.05342  0.59398  1.0000
  H   H37       1.0  0.76153  0.55342  0.59398  1.0000
  H   H38       1.0  0.23847  0.44658  0.09398  1.0000
  H   H39       1.0  0.76153  0.44658  0.09398  1.0000
  H   H40       1.0  0.23847  0.55342  0.59398  1.0000
  H   H41       1.0  0.25810  0.10556  0.64631  1.0000
  H   H42       1.0  0.74190  0.89444  0.14631  1.0000
  H   H43       1.0  0.25810  0.89444  0.14631  1.0000
  H   H44       1.0  0.74190  0.10556  0.64631  1.0000
  H   H45       1.0  0.75810  0.60556  0.64631  1.0000
  H   H46       1.0  0.24190  0.39444  0.14631  1.0000
  H   H47       1.0  0.75810  0.39444  0.14631  1.0000
  H   H48       1.0  0.24190  0.60556  0.64631  1.0000
  C   C89       1.0  0.41270  0.92270  0.87560  1.0000
  C   C90       1.0  0.58730  0.07730  0.37560  1.0000
  C   C91       1.0  0.41270  0.07730  0.37560  1.0000
  C   C92       1.0  0.58730  0.92270  0.87560  1.0000
  C   C93       1.0  0.91270  0.42270  0.87560  1.0000
  C   C94       1.0  0.08730  0.57730  0.37560  1.0000
  C   C95       1.0  0.91270  0.57730  0.37560  1.0000
  C   C96       1.0  0.08730  0.42270  0.87560  1.0000
  C   C97       1.0  0.29090  0.91410  0.89650  1.0000
  C   C98       1.0  0.70910  0.08590  0.39650  1.0000
  C   C99       1.0  0.29090  0.08590  0.39650  1.0000
  C   C100      1.0  0.70910  0.91410  0.89650  1.0000
  C   C101      1.0  0.79090  0.41410  0.89650  1.0000
  C   C102      1.0  0.20910  0.58590  0.39650  1.0000
  C   C103      1.0  0.79090  0.58590  0.39650  1.0000
  C   C104      1.0  0.20910  0.41410  0.89650  1.0000
  H   H49       1.0  0.28645  0.89110  0.94001  1.0000
  H   H50       1.0  0.71355  0.10890  0.44001  1.0000
  H   H51       1.0  0.28645  0.10890  0.44001  1.0000
  H   H52       1.0  0.71355  0.89110  0.94001  1.0000
  H   H53       1.0  0.78645  0.39110  0.94001  1.0000
  H   H54       1.0  0.21355  0.60890  0.44001  1.0000
  H   H55       1.0  0.78645  0.60890  0.44001  1.0000
  H   H56       1.0  0.21355  0.39110  0.94001  1.0000
  H   H57       1.0  0.25697  0.94951  0.90636  1.0000
  H   H58       1.0  0.74303  0.05049  0.40636  1.0000
  H   H59       1.0  0.25697  0.05049  0.40636  1.0000
  H   H60       1.0  0.74303  0.94951  0.90636  1.0000
  H   H61       1.0  0.75697  0.44951  0.90636  1.0000
  H   H62       1.0  0.24303  0.55049  0.40636  1.0000
  H   H63       1.0  0.75697  0.55049  0.40636  1.0000
  H   H64       1.0  0.24303  0.44951  0.90636  1.0000
  H   H65       1.0  0.25275  0.89612  0.85633  1.0000
  H   H66       1.0  0.74725  0.10388  0.35633  1.0000
  H   H67       1.0  0.25275  0.10388  0.35633  1.0000
  H   H68       1.0  0.74725  0.89612  0.85633  1.0000
  H   H69       1.0  0.75275  0.39612  0.85633  1.0000
  H   H70       1.0  0.24725  0.60388  0.35633  1.0000
  H   H71       1.0  0.75275  0.60388  0.35633  1.0000
  H   H72       1.0  0.24725  0.39612  0.85633  1.0000
  N   N1        1.0  0.16100  0.87710  0.33650  1.0000
  N   N2        1.0  0.83900  0.12290  0.83650  1.0000
  N   N3        1.0  0.16100  0.12290  0.83650  1.0000
  N   N4        1.0  0.83900  0.87710  0.33650  1.0000
  N   N5        1.0  0.66100  0.37710  0.33650  1.0000
  N   N6        1.0  0.33900  0.62290  0.83650  1.0000
  N   N7        1.0  0.66100  0.62290  0.83650  1.0000
  N   N8        1.0  0.33900  0.37710  0.33650  1.0000
  N   N9        1.0  0.19320  0.90990  0.28120  1.0000
  N   N10       1.0  0.80680  0.09010  0.78120  1.0000
  N   N11       1.0  0.19320  0.09010  0.78120  1.0000
  N   N12       1.0  0.80680  0.90990  0.28120  1.0000
  N   N13       1.0  0.69320  0.40990  0.28120  1.0000
  N   N14       1.0  0.30680  0.59010  0.78120  1.0000
  N   N15       1.0  0.69320  0.59010  0.78120  1.0000
  N   N16       1.0  0.30680  0.40990  0.28120  1.0000
  N   N17       1.0  0.25620  0.95010  0.30950  1.0000
  N   N18       1.0  0.74380  0.04990  0.80950  1.0000
  N   N19       1.0  0.25620  0.04990  0.80950  1.0000
  N   N20       1.0  0.74380  0.95010  0.30950  1.0000
  N   N21       1.0  0.75620  0.45010  0.30950  1.0000
  N   N22       1.0  0.24380  0.54990  0.80950  1.0000
  N   N23       1.0  0.75620  0.54990  0.80950  1.0000
  N   N24       1.0  0.24380  0.45010  0.30950  1.0000
  N   N25       1.0  0.26290  0.94220  0.38220  1.0000
  N   N26       1.0  0.73710  0.05780  0.88220  1.0000
  N   N27       1.0  0.26290  0.05780  0.88220  1.0000
  N   N28       1.0  0.73710  0.94220  0.38220  1.0000
  N   N29       1.0  0.76290  0.44220  0.38220  1.0000
  N   N30       1.0  0.23710  0.55780  0.88220  1.0000
  N   N31       1.0  0.76290  0.55780  0.88220  1.0000
  N   N32       1.0  0.23710  0.44220  0.38220  1.0000
  N   N33       1.0  0.44150  0.04600  0.68440  1.0000
  N   N34       1.0  0.55850  0.95400  0.18440  1.0000
  N   N35       1.0  0.44150  0.95400  0.18440  1.0000
  N   N36       1.0  0.55850  0.04600  0.68440  1.0000
  N   N37       1.0  0.94150  0.54600  0.68440  1.0000
  N   N38       1.0  0.05850  0.45400  0.18440  1.0000
  N   N39       1.0  0.94150  0.45400  0.18440  1.0000
  N   N40       1.0  0.05850  0.54600  0.68440  1.0000
  N   N41       1.0  0.50000  0.09490  0.58720  1.0000
  N   N42       1.0  0.50000  0.90510  0.08720  1.0000
  N   N43       1.0  0.00000  0.59490  0.58720  1.0000
  N   N44       1.0  0.00000  0.40510  0.08720  1.0000
  N   N45       1.0  0.44480  0.95290  0.81730  1.0000
  N   N46       1.0  0.55520  0.04710  0.31730  1.0000
  N   N47       1.0  0.44480  0.04710  0.31730  1.0000
  N   N48       1.0  0.55520  0.95290  0.81730  1.0000
  N   N49       1.0  0.94480  0.45290  0.81730  1.0000
  N   N50       1.0  0.05520  0.54710  0.31730  1.0000
  N   N51       1.0  0.94480  0.54710  0.31730  1.0000
  N   N52       1.0  0.05520  0.45290  0.81730  1.0000
  N   N53       1.0  0.50000  0.89950  0.91010  1.0000
  N   N54       1.0  0.50000  0.10050  0.41010  1.0000
  N   N55       1.0  0.00000  0.39950  0.91010  1.0000
  N   N56       1.0  0.00000  0.60050  0.41010  1.0000
  O   O1        1.0  0.27770  0.96150  0.66510  1.0000
  O   O2        1.0  0.72230  0.03850  0.16510  1.0000
  O   O3        1.0  0.27770  0.03850  0.16510  1.0000
  O   O4        1.0  0.72230  0.96150  0.66510  1.0000
  O   O5        1.0  0.77770  0.46150  0.66510  1.0000
  O   O6        1.0  0.22230  0.53850  0.16510  1.0000
  O   O7        1.0  0.77770  0.53850  0.16510  1.0000
  O   O8        1.0  0.22230  0.46150  0.66510  1.0000
  O   O9        1.0  0.21430  0.89590  0.73230  1.0000
  O   O10       1.0  0.78570  0.10410  0.23230  1.0000
  O   O11       1.0  0.21430  0.10410  0.23230  1.0000
  O   O12       1.0  0.78570  0.89590  0.73230  1.0000
  O   O13       1.0  0.71430  0.39590  0.73230  1.0000
  O   O14       1.0  0.28570  0.60410  0.23230  1.0000
  O   O15       1.0  0.71430  0.60410  0.23230  1.0000
  O   O16       1.0  0.28570  0.39590  0.73230  1.0000
  O   O17       1.0  0.12090  0.70344  0.50180  1.0000
  O   O18       1.0  0.87910  0.29656  0.00180  1.0000
  O   O19       1.0  0.12090  0.29656  0.00180  1.0000
  O   O20       1.0  0.87910  0.70344  0.50180  1.0000
  O   O21       1.0  0.62090  0.20344  0.50180  1.0000
  O   O22       1.0  0.37910  0.79656  0.00180  1.0000
  O   O23       1.0  0.62090  0.79656  0.00180  1.0000
  O   O24       1.0  0.37910  0.20344  0.50180  1.0000
  O   O25       1.0  0.08450  0.71730  0.61910  1.0000
  O   O26       1.0  0.91550  0.28270  0.11910  1.0000
  O   O27       1.0  0.08450  0.28270  0.11910  1.0000
  O   O28       1.0  0.91550  0.71730  0.61910  1.0000
  O   O29       1.0  0.58450  0.21730  0.61910  1.0000
  O   O30       1.0  0.41550  0.78270  0.11910  1.0000
  O   O31       1.0  0.58450  0.78270  0.11910  1.0000
  O   O32       1.0  0.41550  0.21730  0.61910  1.0000
