data_image0
_chemical_formula_structural       Cd4O8C16O4C4O4C16H4C4H4C4O8C4H4C4H4C4H4C8H4O4C4H4C4H4C4H4O8C4H4C4H4C4H4
_chemical_formula_sum              "Cd4 O36 C88 H48"
_cell_length_a       13.5289
_cell_length_b       13.9881
_cell_length_c       15.319
_cell_angle_alpha    90
_cell_angle_beta     90
_cell_angle_gamma    90

_space_group_name_H-M_alt    "P 1"
_space_group_IT_number       1

loop_
  _space_group_symop_operation_xyz
  'x, y, z'

loop_
  _atom_site_type_symbol
  _atom_site_label
  _atom_site_symmetry_multiplicity
  _atom_site_fract_x
  _atom_site_fract_y
  _atom_site_fract_z
  _atom_site_occupancy
  Cd  Cd1       1.0  0.53457  0.79392  0.14360  1.0000
  Cd  Cd2       1.0  0.96543  0.20608  0.64360  1.0000
  Cd  Cd3       1.0  0.46543  0.29392  0.35640  1.0000
  Cd  Cd4       1.0  0.03457  0.70608  0.85640  1.0000
  O   O1        1.0  0.57670  0.62430  0.13900  1.0000
  O   O2        1.0  0.92330  0.37570  0.63900  1.0000
  O   O3        1.0  0.42330  0.12430  0.36100  1.0000
  O   O4        1.0  0.07670  0.87570  0.86100  1.0000
  O   O5        1.0  0.66290  0.80150  0.25420  1.0000
  O   O6        1.0  0.83710  0.19850  0.75420  1.0000
  O   O7        1.0  0.33710  0.30150  0.24580  1.0000
  O   O8        1.0  0.16290  0.69850  0.74580  1.0000
  C   C1        1.0  0.53490  0.52270  0.01850  1.0000
  C   C2        1.0  0.96510  0.47730  0.51850  1.0000
  C   C3        1.0  0.46510  0.02270  0.48150  1.0000
  C   C4        1.0  0.03490  0.97730  0.98150  1.0000
  C   C5        1.0  0.64530  0.88750  0.26470  1.0000
  C   C6        1.0  0.85470  0.11250  0.76470  1.0000
  C   C7        1.0  0.35470  0.38750  0.23530  1.0000
  C   C8        1.0  0.14530  0.61250  0.73530  1.0000
  C   C9        1.0  0.82280  0.05300  0.44090  1.0000
  C   C10       1.0  0.67720  0.94700  0.94090  1.0000
  C   C11       1.0  0.17720  0.55300  0.05910  1.0000
  C   C12       1.0  0.32280  0.44700  0.55910  1.0000
  C   C13       1.0  0.24430  0.21330  0.77390  1.0000
  C   C14       1.0  0.25570  0.78670  0.27390  1.0000
  C   C15       1.0  0.75570  0.71330  0.72610  1.0000
  C   C16       1.0  0.74430  0.28670  0.22610  1.0000
  O   O9        1.0  0.57690  0.92920  0.22500  1.0000
  O   O10       1.0  0.92310  0.07080  0.72500  1.0000
  O   O11       1.0  0.42310  0.42920  0.27500  1.0000
  O   O12       1.0  0.07690  0.57080  0.77500  1.0000
  C   C17       1.0  0.53080  0.61770  0.06590  1.0000
  C   C18       1.0  0.96920  0.38230  0.56590  1.0000
  C   C19       1.0  0.46920  0.11770  0.43410  1.0000
  C   C20       1.0  0.03080  0.88230  0.93410  1.0000
  O   O13       1.0  0.48680  0.68460  0.03160  1.0000
  O   O14       1.0  0.01320  0.31540  0.53160  1.0000
  O   O15       1.0  0.51320  0.18460  0.46840  1.0000
  O   O16       1.0  0.98680  0.81540  0.96840  1.0000
  C   C21       1.0  0.70860  0.94570  0.32540  1.0000
  C   C22       1.0  0.79140  0.05430  0.82540  1.0000
  C   C23       1.0  0.29140  0.44570  0.17460  1.0000
  C   C24       1.0  0.20860  0.55430  0.67460  1.0000
  C   C25       1.0  0.14880  0.20490  0.72430  1.0000
  C   C26       1.0  0.35120  0.79510  0.22430  1.0000
  C   C27       1.0  0.85120  0.70490  0.77570  1.0000
  C   C28       1.0  0.64880  0.29510  0.27570  1.0000
  C   C29       1.0  0.52550  0.34750  0.93860  1.0000
  C   C30       1.0  0.97450  0.65250  0.43860  1.0000
  C   C31       1.0  0.47450  0.84750  0.56140  1.0000
  C   C32       1.0  0.02550  0.15250  0.06140  1.0000
  C   C33       1.0  0.74240  0.09270  0.39890  1.0000
  C   C34       1.0  0.75760  0.90730  0.89890  1.0000
  C   C35       1.0  0.25760  0.59270  0.10110  1.0000
  C   C36       1.0  0.24240  0.40730  0.60110  1.0000
  H   H1        1.0  0.72480  0.15570  0.41040  1.0000
  H   H2        1.0  0.77520  0.84430  0.91040  1.0000
  H   H3        1.0  0.27520  0.65570  0.08960  1.0000
  H   H4        1.0  0.22480  0.34430  0.58960  1.0000
  C   C37       1.0  0.68810  0.04030  0.34050  1.0000
  C   C38       1.0  0.81190  0.95970  0.84050  1.0000
  C   C39       1.0  0.31190  0.54030  0.15950  1.0000
  C   C40       1.0  0.18810  0.45970  0.65950  1.0000
  H   H5        1.0  0.63650  0.06940  0.31050  1.0000
  H   H6        1.0  0.86350  0.93060  0.81050  1.0000
  H   H7        1.0  0.36350  0.56940  0.18950  1.0000
  H   H8        1.0  0.13650  0.43060  0.68950  1.0000
  C   C41       1.0  0.88070  0.11050  0.50580  1.0000
  C   C42       1.0  0.61930  0.88950  0.00580  1.0000
  C   C43       1.0  0.11930  0.61050  0.99420  1.0000
  C   C44       1.0  0.38070  0.38950  0.49420  1.0000
  O   O17       1.0  0.14390  0.15190  0.65930  1.0000
  O   O18       1.0  0.35610  0.84810  0.15930  1.0000
  O   O19       1.0  0.85610  0.65190  0.84070  1.0000
  O   O20       1.0  0.64390  0.34810  0.34070  1.0000
  O   O21       1.0  0.07730  0.25110  0.75080  1.0000
  O   O22       1.0  0.42270  0.74890  0.25080  1.0000
  O   O23       1.0  0.92270  0.75110  0.74920  1.0000
  O   O24       1.0  0.57730  0.24890  0.24920  1.0000
  C   C45       1.0  0.41840  0.18210  0.78880  1.0000
  C   C46       1.0  0.08160  0.81790  0.28880  1.0000
  C   C47       1.0  0.58160  0.68210  0.71120  1.0000
  C   C48       1.0  0.91840  0.31790  0.21120  1.0000
  H   H9        1.0  0.47520  0.15120  0.76960  1.0000
  H   H10       1.0  0.02480  0.84880  0.26960  1.0000
  H   H11       1.0  0.52480  0.65120  0.73040  1.0000
  H   H12       1.0  0.97520  0.34880  0.23040  1.0000
  C   C49       1.0  0.79080  0.90630  0.36550  1.0000
  C   C50       1.0  0.70920  0.09370  0.86550  1.0000
  C   C51       1.0  0.20920  0.40630  0.13450  1.0000
  C   C52       1.0  0.29080  0.59370  0.63450  1.0000
  H   H13       1.0  0.80820  0.84320  0.35400  1.0000
  H   H14       1.0  0.69180  0.15680  0.85400  1.0000
  H   H15       1.0  0.19180  0.34320  0.14600  1.0000
  H   H16       1.0  0.30820  0.65680  0.64600  1.0000
  C   C53       1.0  0.84690  0.96010  0.42220  1.0000
  C   C54       1.0  0.65310  0.03990  0.92220  1.0000
  C   C55       1.0  0.15310  0.46010  0.07780  1.0000
  C   C56       1.0  0.34690  0.53990  0.57780  1.0000
  H   H17       1.0  0.90210  0.93280  0.44830  1.0000
  H   H18       1.0  0.59790  0.06720  0.94830  1.0000
  H   H19       1.0  0.09790  0.43280  0.05170  1.0000
  H   H20       1.0  0.40210  0.56720  0.55170  1.0000
  C   C57       1.0  0.42090  0.24270  0.86020  1.0000
  C   C58       1.0  0.07910  0.75730  0.36020  1.0000
  C   C59       1.0  0.57910  0.74270  0.63980  1.0000
  C   C60       1.0  0.92090  0.25730  0.13980  1.0000
  C   C61       1.0  0.24960  0.27180  0.84530  1.0000
  C   C62       1.0  0.25040  0.72820  0.34530  1.0000
  C   C63       1.0  0.75040  0.77180  0.65470  1.0000
  C   C64       1.0  0.74960  0.22820  0.15470  1.0000
  H   H21       1.0  0.19270  0.30190  0.86540  1.0000
  H   H22       1.0  0.30730  0.69810  0.36540  1.0000
  H   H23       1.0  0.80730  0.80190  0.63460  1.0000
  H   H24       1.0  0.69270  0.19810  0.13460  1.0000
  O   O25       1.0  0.51300  0.25830  0.89760  1.0000
  O   O26       1.0  0.98700  0.74170  0.39760  1.0000
  O   O27       1.0  0.48700  0.75830  0.60240  1.0000
  O   O28       1.0  0.01300  0.24170  0.10240  1.0000
  C   C65       1.0  0.33840  0.28700  0.88810  1.0000
  C   C66       1.0  0.16160  0.71300  0.38810  1.0000
  C   C67       1.0  0.66160  0.78700  0.61190  1.0000
  C   C68       1.0  0.83840  0.21300  0.11190  1.0000
  H   H25       1.0  0.34100  0.32760  0.93610  1.0000
  H   H26       1.0  0.15900  0.67240  0.43610  1.0000
  H   H27       1.0  0.65900  0.82760  0.56390  1.0000
  H   H28       1.0  0.84100  0.17240  0.06390  1.0000
  C   C69       1.0  0.32780  0.16870  0.74650  1.0000
  C   C70       1.0  0.17220  0.83130  0.24650  1.0000
  C   C71       1.0  0.67220  0.66870  0.75350  1.0000
  C   C72       1.0  0.82780  0.33130  0.25350  1.0000
  H   H29       1.0  0.32470  0.12820  0.69840  1.0000
  H   H30       1.0  0.17530  0.87180  0.19840  1.0000
  H   H31       1.0  0.67530  0.62820  0.80160  1.0000
  H   H32       1.0  0.82470  0.37180  0.30160  1.0000
  C   C73       1.0  0.51480  0.51610  0.93290  1.0000
  C   C74       1.0  0.98520  0.48390  0.43290  1.0000
  C   C75       1.0  0.48520  0.01610  0.56710  1.0000
  C   C76       1.0  0.01480  0.98390  0.06710  1.0000
  H   H33       1.0  0.50450  0.57160  0.90070  1.0000
  H   H34       1.0  0.99550  0.42840  0.40070  1.0000
  H   H35       1.0  0.49550  0.07160  0.59930  1.0000
  H   H36       1.0  0.00450  0.92840  0.09930  1.0000
  O   O29       1.0  0.96660  0.08970  0.52330  1.0000
  O   O30       1.0  0.53340  0.91030  0.02330  1.0000
  O   O31       1.0  0.03340  0.58970  0.97670  1.0000
  O   O32       1.0  0.46660  0.41030  0.47670  1.0000
  O   O33       1.0  0.83530  0.17730  0.54390  1.0000
  O   O34       1.0  0.66470  0.82270  0.04390  1.0000
  O   O35       1.0  0.16470  0.67730  0.95610  1.0000
  O   O36       1.0  0.33530  0.32270  0.45610  1.0000
  C   C77       1.0  0.55510  0.43930  0.06430  1.0000
  C   C78       1.0  0.94490  0.56070  0.56430  1.0000
  C   C79       1.0  0.44490  0.93930  0.43570  1.0000
  C   C80       1.0  0.05510  0.06070  0.93570  1.0000
  H   H37       1.0  0.57190  0.44210  0.12310  1.0000
  H   H38       1.0  0.92810  0.55790  0.62310  1.0000
  H   H39       1.0  0.42810  0.94210  0.37690  1.0000
  H   H40       1.0  0.07190  0.05790  0.87690  1.0000
  C   C81       1.0  0.55010  0.35250  0.02220  1.0000
  C   C82       1.0  0.94990  0.64750  0.52220  1.0000
  C   C83       1.0  0.44990  0.85250  0.47780  1.0000
  C   C84       1.0  0.05010  0.14750  0.97780  1.0000
  H   H41       1.0  0.56420  0.29670  0.05290  1.0000
  H   H42       1.0  0.93580  0.70330  0.55290  1.0000
  H   H43       1.0  0.43580  0.79670  0.44710  1.0000
  H   H44       1.0  0.06420  0.20330  0.94710  1.0000
  C   C85       1.0  0.50940  0.42860  0.89200  1.0000
  C   C86       1.0  0.99060  0.57140  0.39200  1.0000
  C   C87       1.0  0.49060  0.92860  0.60800  1.0000
  C   C88       1.0  0.00940  0.07140  0.10800  1.0000
  H   H45       1.0  0.49470  0.42510  0.83280  1.0000
  H   H46       1.0  0.00530  0.57490  0.33280  1.0000
  H   H47       1.0  0.50530  0.92510  0.66720  1.0000
  H   H48       1.0  0.99470  0.07490  0.16720  1.0000
