data_image0
_chemical_formula_structural       Cr2N2O2C2H2O2C2H2O2C2H2O2C2H2O2C2O2N2O2C2O2C2H2C2H2C2H2C2H2C8
_chemical_formula_sum              "Cr2 N4 O16 C28 H16"
_cell_length_a       10.87
_cell_length_b       13.248
_cell_length_c       17.804
_cell_angle_alpha    90
_cell_angle_beta     102.91
_cell_angle_gamma    90

_space_group_name_H-M_alt    "P 1"
_space_group_IT_number       1

loop_
  _space_group_symop_operation_xyz
  'x, y, z'

loop_
  _atom_site_type_symbol
  _atom_site_label
  _atom_site_symmetry_multiplicity
  _atom_site_fract_x
  _atom_site_fract_y
  _atom_site_fract_z
  _atom_site_occupancy
  Cr  Cr1       1.0  0.94470  0.30985  0.42669  1.0000
  Cr  Cr2       1.0  0.05530  0.80985  0.57331  1.0000
  N   N1        1.0  0.93610  0.17730  0.36670  1.0000
  N   N2        1.0  0.06390  0.67730  0.63330  1.0000
  O   O1        1.0  0.76120  0.31400  0.41310  1.0000
  O   O2        1.0  0.23880  0.81400  0.58690  1.0000
  C   C1        1.0  0.93760  0.08500  0.39820  1.0000
  C   C2        1.0  0.06240  0.58500  0.60180  1.0000
  H   H1        1.0  0.94100  0.07900  0.45070  1.0000
  H   H2        1.0  0.05900  0.57900  0.54930  1.0000
  O   O3        1.0  0.93340  0.44690  0.46520  1.0000
  O   O4        1.0  0.06660  0.94690  0.53480  1.0000
  C   C3        1.0  0.93400  0.99790  0.35350  1.0000
  C   C4        1.0  0.06600  0.49790  0.64650  1.0000
  H   H3        1.0  0.93420  0.93450  0.37590  1.0000
  H   H4        1.0  0.06580  0.43450  0.62410  1.0000
  O   O5        1.0  0.60740  0.40710  0.43970  1.0000
  O   O6        1.0  0.39260  0.90710  0.56030  1.0000
  C   C5        1.0  0.93000  0.00720  0.27570  1.0000
  C   C6        1.0  0.07000  0.50720  0.72430  1.0000
  H   H5        1.0  0.92900  0.95000  0.24530  1.0000
  H   H6        1.0  0.07100  0.45000  0.75470  1.0000
  O   O7        1.0  0.78990  0.56050  0.48470  1.0000
  O   O8        1.0  0.21010  0.06050  0.51530  1.0000
  C   C7        1.0  0.92760  0.10090  0.24390  1.0000
  C   C8        1.0  0.07240  0.60090  0.75610  1.0000
  H   H7        1.0  0.92380  0.10820  0.19150  1.0000
  H   H8        1.0  0.07620  0.60820  0.80850  1.0000
  O   O9        1.0  0.96310  0.24720  0.52780  1.0000
  O   O10       1.0  0.03690  0.74720  0.47220  1.0000
  C   C9        1.0  0.93080  0.18660  0.29090  1.0000
  C   C10       1.0  0.06920  0.68660  0.70910  1.0000
  O   O11       1.0  0.13160  0.31260  0.45650  1.0000
  O   O12       1.0  0.86840  0.81260  0.54350  1.0000
  N   N3        1.0  0.93710  0.36250  0.31690  1.0000
  N   N4        1.0  0.06290  0.86250  0.68310  1.0000
  O   O13       1.0  0.10830  0.21370  0.63530  1.0000
  O   O14       1.0  0.89170  0.71370  0.36470  1.0000
  C   C11       1.0  0.92730  0.29040  0.26160  1.0000
  C   C12       1.0  0.07270  0.79040  0.73840  1.0000
  O   O15       1.0  0.28780  0.29050  0.56070  1.0000
  O   O16       1.0  0.71220  0.79050  0.43930  1.0000
  C   C13       1.0  0.91370  0.31800  0.18440  1.0000
  C   C14       1.0  0.08630  0.81800  0.81560  1.0000
  H   H9        1.0  0.90380  0.26870  0.14630  1.0000
  H   H10       1.0  0.09620  0.76870  0.85370  1.0000
  C   C15       1.0  0.91490  0.41780  0.16500  1.0000
  C   C16       1.0  0.08510  0.91780  0.83500  1.0000
  H   H11       1.0  0.90700  0.43590  0.11370  1.0000
  H   H12       1.0  0.09300  0.93590  0.88630  1.0000
  C   C17       1.0  0.92740  0.49140  0.22010  1.0000
  C   C18       1.0  0.07260  0.99140  0.77990  1.0000
  H   H13       1.0  0.92850  0.55930  0.20700  1.0000
  H   H14       1.0  0.07150  0.05930  0.79300  1.0000
  C   C19       1.0  0.93870  0.46150  0.29690  1.0000
  C   C20       1.0  0.06130  0.96150  0.70310  1.0000
  H   H15       1.0  0.94740  0.51050  0.33510  1.0000
  H   H16       1.0  0.05260  0.01050  0.66490  1.0000
  C   C21       1.0  0.71910  0.39360  0.43770  1.0000
  C   C22       1.0  0.28090  0.89360  0.56230  1.0000
  C   C23       1.0  0.81930  0.47690  0.46570  1.0000
  C   C24       1.0  0.18070  0.97690  0.53430  1.0000
  C   C25       1.0  0.17840  0.28430  0.52770  1.0000
  C   C26       1.0  0.82160  0.78430  0.47230  1.0000
  C   C27       1.0  0.07670  0.24390  0.56750  1.0000
  C   C28       1.0  0.92330  0.74390  0.43250  1.0000
