data_image0
_chemical_formula_structural       Mn2N4C2H2C2H2C4H2C2H2C4H2C2H2C2H2C2H2O2H4O2C2H2O2S2O8
_chemical_formula_sum              "Mn2 N4 C22 H22 O14 S2"
_cell_length_a       9.363
_cell_length_b       9.991
_cell_length_c       10.629
_cell_angle_alpha    89.79
_cell_angle_beta     79.7
_cell_angle_gamma    73.99

_space_group_name_H-M_alt    "P 1"
_space_group_IT_number       1

loop_
  _space_group_symop_operation_xyz
  'x, y, z'

loop_
  _atom_site_type_symbol
  _atom_site_label
  _atom_site_symmetry_multiplicity
  _atom_site_fract_x
  _atom_site_fract_y
  _atom_site_fract_z
  _atom_site_occupancy
  Mn  Mn1       1.0  0.49164  0.00534  0.16747  1.0000
  Mn  Mn2       1.0  0.50836  0.99466  0.83253  1.0000
  N   N1        1.0  0.29310  0.20090  0.18510  1.0000
  N   N2        1.0  0.70690  0.79910  0.81490  1.0000
  N   N3        1.0  0.68650  0.80470  0.15120  1.0000
  N   N4        1.0  0.31350  0.19530  0.84880  1.0000
  C   C1        1.0  0.15110  0.19490  0.20160  1.0000
  C   C2        1.0  0.84890  0.80510  0.79840  1.0000
  H   H1        1.0  0.13240  0.10900  0.21720  1.0000
  H   H2        1.0  0.86760  0.89100  0.78280  1.0000
  C   C3        1.0  0.02900  0.30970  0.19680  1.0000
  C   C4        1.0  0.97100  0.69030  0.80320  1.0000
  H   H3        1.0  0.93180  0.29970  0.20790  1.0000
  H   H4        1.0  0.06820  0.70030  0.79210  1.0000
  C   C5        1.0  0.05290  0.44020  0.17520  1.0000
  C   C6        1.0  0.94710  0.55980  0.82480  1.0000
  C   C7        1.0  0.20150  0.44720  0.16350  1.0000
  C   C8        1.0  0.79850  0.55280  0.83650  1.0000
  H   H5        1.0  0.22340  0.53220  0.15170  1.0000
  H   H6        1.0  0.77660  0.46780  0.84830  1.0000
  C   C9        1.0  0.31640  0.32650  0.16960  1.0000
  C   C10       1.0  0.68360  0.67350  0.83040  1.0000
  H   H7        1.0  0.41450  0.33340  0.16260  1.0000
  H   H8        1.0  0.58550  0.66660  0.83740  1.0000
  C   C11       1.0  0.92670  0.56550  0.16580  1.0000
  C   C12       1.0  0.07330  0.43450  0.83420  1.0000
  C   C13       1.0  0.77920  0.55920  0.17710  1.0000
  C   C14       1.0  0.22080  0.44080  0.82290  1.0000
  H   H9        1.0  0.75720  0.47440  0.19030  1.0000
  H   H10       1.0  0.24280  0.52560  0.80970  1.0000
  C   C15       1.0  0.66420  0.67900  0.16890  1.0000
  C   C16       1.0  0.33580  0.32100  0.83110  1.0000
  H   H11       1.0  0.56630  0.67140  0.17610  1.0000
  H   H12       1.0  0.43370  0.32860  0.82390  1.0000
  C   C17       1.0  0.82870  0.81070  0.13860  1.0000
  C   C18       1.0  0.17130  0.18930  0.86140  1.0000
  H   H13       1.0  0.84740  0.89680  0.12470  1.0000
  H   H14       1.0  0.15260  0.10320  0.87530  1.0000
  C   C19       1.0  0.95080  0.69610  0.14500  1.0000
  C   C20       1.0  0.04920  0.30390  0.85500  1.0000
  H   H15       1.0  0.04790  0.70640  0.13540  1.0000
  H   H16       1.0  0.95210  0.29360  0.86460  1.0000
  O   O1        1.0  0.34970  0.91380  0.30680  1.0000
  O   O2        1.0  0.65030  0.08620  0.69320  1.0000
  H   H17       1.0  0.35800  0.86800  0.36500  1.0000
  H   H18       1.0  0.64200  0.13200  0.63500  1.0000
  H   H19       1.0  0.32700  0.86300  0.26300  1.0000
  H   H20       1.0  0.67300  0.13700  0.73700  1.0000
  O   O3        1.0  0.60070  0.07920  0.98867  1.0000
  O   O4        1.0  0.39930  0.92080  0.01133  1.0000
  C   C21       1.0  0.68760  0.15820  0.97850  1.0000
  C   C22       1.0  0.31240  0.84180  0.02150  1.0000
  H   H21       1.0  0.71490  0.18290  0.05320  1.0000
  H   H22       1.0  0.28510  0.81710  0.94680  1.0000
  O   O5        1.0  0.73830  0.20450  0.87870  1.0000
  O   O6        1.0  0.26170  0.79550  0.12130  1.0000
  S   S1        1.0  0.65558  0.17856  0.35859  1.0000
  S   S2        1.0  0.34442  0.82144  0.64141  1.0000
  O   O7        1.0  0.59010  0.07950  0.30390  1.0000
  O   O8        1.0  0.40990  0.92050  0.69610  1.0000
  O   O9        1.0  0.65110  0.29780  0.27870  1.0000
  O   O10       1.0  0.34890  0.70220  0.72130  1.0000
  O   O11       1.0  0.81330  0.10580  0.36710  1.0000
  O   O12       1.0  0.18670  0.89420  0.63290  1.0000
  O   O13       1.0  0.56670  0.22350  0.48740  1.0000
  O   O14       1.0  0.43330  0.77650  0.51260  1.0000
