data_image0
_chemical_formula_structural       Eu8O64C32O4H8O4H8
_chemical_formula_sum              "Eu8 O72 C32 H16"
_cell_length_a       10.3724
_cell_length_b       17.18
_cell_length_c       14.543
_cell_angle_alpha    90
_cell_angle_beta     98.483
_cell_angle_gamma    90

_space_group_name_H-M_alt    "P 1"
_space_group_IT_number       1

loop_
  _space_group_symop_operation_xyz
  'x, y, z'

loop_
  _atom_site_type_symbol
  _atom_site_label
  _atom_site_symmetry_multiplicity
  _atom_site_fract_x
  _atom_site_fract_y
  _atom_site_fract_z
  _atom_site_occupancy
  Eu  Eu1       1.0  0.50313  0.12731  0.34338  1.0000
  Eu  Eu2       1.0  0.99687  0.62731  0.15662  1.0000
  Eu  Eu3       1.0  0.49687  0.87269  0.65662  1.0000
  Eu  Eu4       1.0  0.00313  0.37269  0.84338  1.0000
  Eu  Eu5       1.0  0.01992  0.33498  0.40913  1.0000
  Eu  Eu6       1.0  0.48008  0.83498  0.09087  1.0000
  Eu  Eu7       1.0  0.98008  0.66502  0.59087  1.0000
  Eu  Eu8       1.0  0.51992  0.16502  0.90913  1.0000
  O   O1        1.0  0.85900  0.25797  0.47643  1.0000
  O   O2        1.0  0.64100  0.75797  0.02357  1.0000
  O   O3        1.0  0.14100  0.74203  0.52357  1.0000
  O   O4        1.0  0.35900  0.24203  0.97643  1.0000
  O   O5        1.0  0.66090  0.20793  0.27156  1.0000
  O   O6        1.0  0.83910  0.70793  0.22844  1.0000
  O   O7        1.0  0.33910  0.79207  0.72844  1.0000
  O   O8        1.0  0.16090  0.29207  0.77156  1.0000
  O   O9        1.0  0.84840  0.27478  0.29411  1.0000
  O   O10       1.0  0.65160  0.77478  0.20589  1.0000
  O   O11       1.0  0.15160  0.72522  0.70589  1.0000
  O   O12       1.0  0.34840  0.22522  0.79411  1.0000
  O   O13       1.0  0.68170  0.18266  0.45411  1.0000
  O   O14       1.0  0.81830  0.68266  0.04589  1.0000
  O   O15       1.0  0.31830  0.81734  0.54589  1.0000
  O   O16       1.0  0.18170  0.31734  0.95411  1.0000
  O   O17       1.0  0.42660  0.25665  0.37680  1.0000
  O   O18       1.0  0.07340  0.75665  0.12320  1.0000
  O   O19       1.0  0.57340  0.74335  0.62320  1.0000
  O   O20       1.0  0.92660  0.24335  0.87680  1.0000
  O   O21       1.0  0.09790  0.20906  0.37070  1.0000
  O   O22       1.0  0.40210  0.70906  0.12930  1.0000
  O   O23       1.0  0.90210  0.79094  0.62930  1.0000
  O   O24       1.0  0.59790  0.29094  0.87070  1.0000
  O   O25       1.0  0.25910  0.32897  0.40930  1.0000
  O   O26       1.0  0.24090  0.82897  0.09070  1.0000
  O   O27       1.0  0.74090  0.67103  0.59070  1.0000
  O   O28       1.0  0.75910  0.17103  0.90930  1.0000
  O   O29       1.0  0.26300  0.13662  0.33650  1.0000
  O   O30       1.0  0.23700  0.63662  0.16350  1.0000
  O   O31       1.0  0.73700  0.86338  0.66350  1.0000
  O   O32       1.0  0.76300  0.36338  0.83650  1.0000
  O   O33       1.0  0.61580  0.01184  0.42610  1.0000
  O   O34       1.0  0.88420  0.51184  0.07390  1.0000
  O   O35       1.0  0.38420  0.98816  0.57390  1.0000
  O   O36       1.0  0.11580  0.48816  0.92610  1.0000
  O   O37       1.0  0.56900  0.90755  0.50807  1.0000
  O   O38       1.0  0.93100  0.40755  0.99193  1.0000
  O   O39       1.0  0.43100  0.09245  0.49193  1.0000
  O   O40       1.0  0.06900  0.59245  0.00807  1.0000
  O   O41       1.0  0.12330  0.46313  0.44240  1.0000
  O   O42       1.0  0.37670  0.96313  0.05760  1.0000
  O   O43       1.0  0.87670  0.53687  0.55760  1.0000
  O   O44       1.0  0.62330  0.03687  0.94240  1.0000
  O   O45       1.0  0.07890  0.58654  0.47741  1.0000
  O   O46       1.0  0.42110  0.08654  0.02259  1.0000
  O   O47       1.0  0.92110  0.41346  0.52259  1.0000
  O   O48       1.0  0.57890  0.91346  0.97741  1.0000
  O   O49       1.0  0.39040  0.00187  0.29850  1.0000
  O   O50       1.0  0.10960  0.50187  0.20150  1.0000
  O   O51       1.0  0.60960  0.99813  0.70150  1.0000
  O   O52       1.0  0.89040  0.49813  0.79850  1.0000
  O   O53       1.0  0.60990  0.05116  0.23779  1.0000
  O   O54       1.0  0.89010  0.55116  0.26221  1.0000
  O   O55       1.0  0.39010  0.94884  0.76221  1.0000
  O   O56       1.0  0.10990  0.44884  0.73779  1.0000
  O   O57       1.0  0.62600  0.93577  0.16995  1.0000
  O   O58       1.0  0.87400  0.43577  0.33005  1.0000
  O   O59       1.0  0.37400  0.06423  0.83005  1.0000
  O   O60       1.0  0.12600  0.56423  0.66995  1.0000
  O   O61       1.0  0.42130  0.88329  0.24068  1.0000
  O   O62       1.0  0.07870  0.38329  0.25932  1.0000
  O   O63       1.0  0.57870  0.11671  0.75932  1.0000
  O   O64       1.0  0.92130  0.61671  0.74068  1.0000
  C   C1        1.0  0.76820  0.22510  0.42640  1.0000
  C   C2        1.0  0.73180  0.72510  0.07360  1.0000
  C   C3        1.0  0.23180  0.77490  0.57360  1.0000
  C   C4        1.0  0.26820  0.27490  0.92640  1.0000
  C   C5        1.0  0.75760  0.23660  0.32120  1.0000
  C   C6        1.0  0.74240  0.73660  0.17880  1.0000
  C   C7        1.0  0.24240  0.76340  0.67880  1.0000
  C   C8        1.0  0.25760  0.26340  0.82120  1.0000
  C   C9        1.0  0.21550  0.19880  0.36230  1.0000
  C   C10       1.0  0.28450  0.69880  0.13770  1.0000
  C   C11       1.0  0.78450  0.80120  0.63770  1.0000
  C   C12       1.0  0.71550  0.30120  0.86230  1.0000
  C   C13       1.0  0.30900  0.26780  0.38490  1.0000
  C   C14       1.0  0.19100  0.76780  0.11510  1.0000
  C   C15       1.0  0.69100  0.73220  0.61510  1.0000
  C   C16       1.0  0.80900  0.23220  0.88490  1.0000
  C   C17       1.0  0.55440  0.97710  0.48050  1.0000
  C   C18       1.0  0.94560  0.47710  0.01950  1.0000
  C   C19       1.0  0.44560  0.02290  0.51950  1.0000
  C   C20       1.0  0.05440  0.52290  0.98050  1.0000
  C   C21       1.0  0.05870  0.51450  0.47720  1.0000
  C   C22       1.0  0.44130  0.01450  0.02280  1.0000
  C   C23       1.0  0.94130  0.48550  0.52280  1.0000
  C   C24       1.0  0.55870  0.98550  0.97720  1.0000
  C   C25       1.0  0.45030  0.95350  0.25670  1.0000
  C   C26       1.0  0.04970  0.45350  0.24330  1.0000
  C   C27       1.0  0.54970  0.04650  0.74330  1.0000
  C   C28       1.0  0.95030  0.54650  0.75670  1.0000
  C   C29       1.0  0.57340  0.98310  0.21850  1.0000
  C   C30       1.0  0.92660  0.48310  0.28150  1.0000
  C   C31       1.0  0.42660  0.01690  0.78150  1.0000
  C   C32       1.0  0.07340  0.51690  0.71850  1.0000
  O   O65       1.0  0.12820  0.29760  0.56370  1.0000
  O   O66       1.0  0.37180  0.79760  0.93630  1.0000
  O   O67       1.0  0.87180  0.70240  0.43630  1.0000
  O   O68       1.0  0.62820  0.20240  0.06370  1.0000
  H   H1        1.0  0.20200  0.27600  0.57100  1.0000
  H   H2        1.0  0.29800  0.77600  0.92900  1.0000
  H   H3        1.0  0.79800  0.72400  0.42900  1.0000
  H   H4        1.0  0.70200  0.22400  0.07100  1.0000
  H   H5        1.0  0.11000  0.29600  0.61680  1.0000
  H   H6        1.0  0.39000  0.79600  0.88320  1.0000
  H   H7        1.0  0.89000  0.70400  0.38320  1.0000
  H   H8        1.0  0.61000  0.20400  0.11680  1.0000
  O   O69       1.0  0.40310  0.16785  0.18640  1.0000
  O   O70       1.0  0.09690  0.66785  0.31360  1.0000
  O   O71       1.0  0.59690  0.83215  0.81360  1.0000
  O   O72       1.0  0.90310  0.33215  0.68640  1.0000
  H   H9        1.0  0.40500  0.14100  0.13700  1.0000
  H   H10       1.0  0.09500  0.64100  0.36300  1.0000
  H   H11       1.0  0.59500  0.85900  0.86300  1.0000
  H   H12       1.0  0.90500  0.35900  0.63700  1.0000
  H   H13       1.0  0.34600  0.20320  0.17400  1.0000
  H   H14       1.0  0.15400  0.70320  0.32600  1.0000
  H   H15       1.0  0.65400  0.79680  0.82600  1.0000
  H   H16       1.0  0.84600  0.29680  0.67400  1.0000
