data_image0
_chemical_formula_structural       Os4N32C8H8C8H8C8H8C24
_chemical_formula_sum              "Os4 N32 C48 H24"
_cell_length_a       6.442
_cell_length_b       29.172
_cell_length_c       12.046
_cell_angle_alpha    90
_cell_angle_beta     92.84
_cell_angle_gamma    90

_space_group_name_H-M_alt    "P 1"
_space_group_IT_number       1

loop_
  _space_group_symop_operation_xyz
  'x, y, z'

loop_
  _atom_site_type_symbol
  _atom_site_label
  _atom_site_symmetry_multiplicity
  _atom_site_fract_x
  _atom_site_fract_y
  _atom_site_fract_z
  _atom_site_occupancy
  Os  Os1       1.0  0.00000  0.34869  0.25000  1.0000
  Os  Os2       1.0  0.50000  0.84869  0.25000  1.0000
  Os  Os3       1.0  0.00000  0.65131  0.75000  1.0000
  Os  Os4       1.0  0.50000  0.15131  0.75000  1.0000
  N   N1        1.0  0.17516  0.29210  0.31043  1.0000
  N   N2        1.0  0.67516  0.79210  0.31043  1.0000
  N   N3        1.0  0.82484  0.29210  0.18957  1.0000
  N   N4        1.0  0.32484  0.79210  0.18957  1.0000
  N   N5        1.0  0.82484  0.70790  0.68957  1.0000
  N   N6        1.0  0.32484  0.20790  0.68957  1.0000
  N   N7        1.0  0.17516  0.70790  0.81043  1.0000
  N   N8        1.0  0.67516  0.20790  0.81043  1.0000
  N   N9        1.0  0.18880  0.20998  0.31194  1.0000
  N   N10       1.0  0.68880  0.70998  0.31194  1.0000
  N   N11       1.0  0.81120  0.20998  0.18806  1.0000
  N   N12       1.0  0.31120  0.70998  0.18806  1.0000
  N   N13       1.0  0.81120  0.79002  0.68806  1.0000
  N   N14       1.0  0.31120  0.29002  0.68806  1.0000
  N   N15       1.0  0.18880  0.79002  0.81194  1.0000
  N   N16       1.0  0.68880  0.29002  0.81194  1.0000
  N   N17       1.0  0.29580  0.42282  0.36574  1.0000
  N   N18       1.0  0.79580  0.92282  0.36574  1.0000
  N   N19       1.0  0.70420  0.42282  0.13426  1.0000
  N   N20       1.0  0.20420  0.92282  0.13426  1.0000
  N   N21       1.0  0.70420  0.57718  0.63426  1.0000
  N   N22       1.0  0.20420  0.07718  0.63426  1.0000
  N   N23       1.0  0.29580  0.57718  0.86574  1.0000
  N   N24       1.0  0.79580  0.07718  0.86574  1.0000
  N   N25       1.0  0.23760  0.34450  0.02238  1.0000
  N   N26       1.0  0.73760  0.84450  0.02238  1.0000
  N   N27       1.0  0.76240  0.34450  0.47762  1.0000
  N   N28       1.0  0.26240  0.84450  0.47762  1.0000
  N   N29       1.0  0.76240  0.65550  0.97762  1.0000
  N   N30       1.0  0.26240  0.15550  0.97762  1.0000
  N   N31       1.0  0.23760  0.65550  0.52238  1.0000
  N   N32       1.0  0.73760  0.15550  0.52238  1.0000
  C   C1        1.0  0.35690  0.29367  0.37186  1.0000
  C   C2        1.0  0.85690  0.79367  0.37186  1.0000
  C   C3        1.0  0.64310  0.29367  0.12814  1.0000
  C   C4        1.0  0.14310  0.79367  0.12814  1.0000
  C   C5        1.0  0.64310  0.70633  0.62814  1.0000
  C   C6        1.0  0.14310  0.20633  0.62814  1.0000
  C   C7        1.0  0.35690  0.70633  0.87186  1.0000
  C   C8        1.0  0.85690  0.20633  0.87186  1.0000
  H   H1        1.0  0.41570  0.32250  0.39220  1.0000
  H   H2        1.0  0.91570  0.82250  0.39220  1.0000
  H   H3        1.0  0.58430  0.32250  0.10780  1.0000
  H   H4        1.0  0.08430  0.82250  0.10780  1.0000
  H   H5        1.0  0.58430  0.67750  0.60780  1.0000
  H   H6        1.0  0.08430  0.17750  0.60780  1.0000
  H   H7        1.0  0.41570  0.67750  0.89220  1.0000
  H   H8        1.0  0.91570  0.17750  0.89220  1.0000
  C   C9        1.0  0.45790  0.25379  0.40535  1.0000
  C   C10       1.0  0.95790  0.75379  0.40535  1.0000
  C   C11       1.0  0.54210  0.25379  0.09465  1.0000
  C   C12       1.0  0.04210  0.75379  0.09465  1.0000
  C   C13       1.0  0.54210  0.74621  0.59465  1.0000
  C   C14       1.0  0.04210  0.24621  0.59465  1.0000
  C   C15       1.0  0.45790  0.74621  0.90535  1.0000
  C   C16       1.0  0.95790  0.24621  0.90535  1.0000
  H   H9        1.0  0.58480  0.25480  0.44900  1.0000
  H   H10       1.0  0.08480  0.75480  0.44900  1.0000
  H   H11       1.0  0.41520  0.25480  0.05100  1.0000
  H   H12       1.0  0.91520  0.75480  0.05100  1.0000
  H   H13       1.0  0.41520  0.74520  0.55100  1.0000
  H   H14       1.0  0.91520  0.24520  0.55100  1.0000
  H   H15       1.0  0.58480  0.74520  0.94900  1.0000
  H   H16       1.0  0.08480  0.24520  0.94900  1.0000
  C   C17       1.0  0.36860  0.21212  0.37328  1.0000
  C   C18       1.0  0.86860  0.71212  0.37328  1.0000
  C   C19       1.0  0.63140  0.21212  0.12672  1.0000
  C   C20       1.0  0.13140  0.71212  0.12672  1.0000
  C   C21       1.0  0.63140  0.78788  0.62672  1.0000
  C   C22       1.0  0.13140  0.28788  0.62672  1.0000
  C   C23       1.0  0.36860  0.78788  0.87328  1.0000
  C   C24       1.0  0.86860  0.28788  0.87328  1.0000
  H   H17       1.0  0.43640  0.18440  0.39530  1.0000
  H   H18       1.0  0.93640  0.68440  0.39530  1.0000
  H   H19       1.0  0.56360  0.18440  0.10470  1.0000
  H   H20       1.0  0.06360  0.68440  0.10470  1.0000
  H   H21       1.0  0.56360  0.81560  0.60470  1.0000
  H   H22       1.0  0.06360  0.31560  0.60470  1.0000
  H   H23       1.0  0.43640  0.81560  0.89530  1.0000
  H   H24       1.0  0.93640  0.31560  0.89530  1.0000
  C   C25       1.0  0.09960  0.24987  0.28366  1.0000
  C   C26       1.0  0.59960  0.74987  0.28366  1.0000
  C   C27       1.0  0.90040  0.24987  0.21634  1.0000
  C   C28       1.0  0.40040  0.74987  0.21634  1.0000
  C   C29       1.0  0.90040  0.75013  0.71634  1.0000
  C   C30       1.0  0.40040  0.25013  0.71634  1.0000
  C   C31       1.0  0.09960  0.75013  0.78366  1.0000
  C   C32       1.0  0.59960  0.25013  0.78366  1.0000
  C   C33       1.0  0.18680  0.39626  0.31969  1.0000
  C   C34       1.0  0.68680  0.89626  0.31969  1.0000
  C   C35       1.0  0.81320  0.39626  0.18031  1.0000
  C   C36       1.0  0.31320  0.89626  0.18031  1.0000
  C   C37       1.0  0.81320  0.60374  0.68031  1.0000
  C   C38       1.0  0.31320  0.10374  0.68031  1.0000
  C   C39       1.0  0.18680  0.60374  0.81969  1.0000
  C   C40       1.0  0.68680  0.10374  0.81969  1.0000
  C   C41       1.0  0.15600  0.34733  0.10608  1.0000
  C   C42       1.0  0.65600  0.84733  0.10608  1.0000
  C   C43       1.0  0.84400  0.34733  0.39392  1.0000
  C   C44       1.0  0.34400  0.84733  0.39392  1.0000
  C   C45       1.0  0.84400  0.65267  0.89392  1.0000
  C   C46       1.0  0.34400  0.15267  0.89392  1.0000
  C   C47       1.0  0.15600  0.65267  0.60608  1.0000
  C   C48       1.0  0.65600  0.15267  0.60608  1.0000
