data_image0
_chemical_formula_structural       Zn6C2H4C4H2C4H2C2H2C4H4C2H4C6H4C4H2C4H2C4H2C2H4C2H4C4O2C4O12H4O4H2O6H4O14H4O6
_chemical_formula_sum              "Zn6 C48 H50 O44"
_cell_length_a       11.39
_cell_length_b       12.684
_cell_length_c       12.893
_cell_angle_alpha    87.979
_cell_angle_beta     67.951
_cell_angle_gamma    70.43

_space_group_name_H-M_alt    "P 1"
_space_group_IT_number       1

loop_
  _space_group_symop_operation_xyz
  'x, y, z'

loop_
  _atom_site_type_symbol
  _atom_site_label
  _atom_site_symmetry_multiplicity
  _atom_site_fract_x
  _atom_site_fract_y
  _atom_site_fract_z
  _atom_site_occupancy
  Zn  Zn1       1.0  0.72833  0.93698  0.67888  1.0000
  Zn  Zn2       1.0  0.27167  0.06302  0.32112  1.0000
  Zn  Zn3       1.0  0.39579  0.08177  0.86300  1.0000
  Zn  Zn4       1.0  0.60421  0.91823  0.13700  1.0000
  Zn  Zn5       1.0  0.15836  0.63567  0.69998  1.0000
  Zn  Zn6       1.0  0.84164  0.36433  0.30002  1.0000
  C   C1        1.0  0.60180  0.57160  0.59190  1.0000
  C   C2        1.0  0.39820  0.42840  0.40810  1.0000
  H   H1        1.0  0.60100  0.64570  0.57010  1.0000
  H   H2        1.0  0.39900  0.35430  0.42990  1.0000
  H   H3        1.0  0.51490  0.56690  0.60230  1.0000
  H   H4        1.0  0.48510  0.43310  0.39770  1.0000
  C   C3        1.0  0.60120  0.46640  0.75190  1.0000
  C   C4        1.0  0.39880  0.53360  0.24810  1.0000
  C   C5        1.0  0.64200  0.45050  0.84190  1.0000
  C   C6        1.0  0.35800  0.54950  0.15810  1.0000
  H   H5        1.0  0.67620  0.50000  0.86200  1.0000
  H   H6        1.0  0.32380  0.50000  0.13800  1.0000
  C   C7        1.0  0.63020  0.35820  0.90120  1.0000
  C   C8        1.0  0.36980  0.64180  0.09880  1.0000
  C   C9        1.0  0.58120  0.28300  0.87000  1.0000
  C   C10       1.0  0.41880  0.71700  0.13000  1.0000
  H   H7        1.0  0.57830  0.21910  0.90700  1.0000
  H   H8        1.0  0.42170  0.78090  0.09300  1.0000
  C   C11       1.0  0.54650  0.39700  0.72190  1.0000
  C   C12       1.0  0.45350  0.60300  0.27810  1.0000
  H   H9        1.0  0.51690  0.41090  0.66300  1.0000
  H   H10       1.0  0.48310  0.58910  0.33700  1.0000
  C   C13       1.0  0.53680  0.30560  0.78220  1.0000
  C   C14       1.0  0.46320  0.69440  0.21780  1.0000
  C   C15       1.0  0.73170  0.39950  0.02060  1.0000
  C   C16       1.0  0.26830  0.60050  0.97940  1.0000
  H   H11       1.0  0.67460  0.47820  0.03510  1.0000
  H   H12       1.0  0.32540  0.52180  0.96490  1.0000
  H   H13       1.0  0.81690  0.39190  0.95950  1.0000
  H   H14       1.0  0.18310  0.60810  0.04050  1.0000
  C   C17       1.0  0.45380  0.24240  0.66020  1.0000
  C   C18       1.0  0.54620  0.75760  0.33980  1.0000
  H   H15       1.0  0.53490  0.23680  0.59510  1.0000
  H   H16       1.0  0.46510  0.76320  0.40490  1.0000
  H   H17       1.0  0.38730  0.31630  0.66720  1.0000
  H   H18       1.0  0.61270  0.68370  0.33280  1.0000
  C   C19       1.0  0.40000  0.15370  0.64330  1.0000
  C   C20       1.0  0.60000  0.84630  0.35670  1.0000
  C   C21       1.0  0.28980  0.26310  0.03800  1.0000
  C   C22       1.0  0.71020  0.73690  0.96200  1.0000
  C   C23       1.0  0.19100  0.32030  0.98480  1.0000
  C   C24       1.0  0.80900  0.67970  0.01520  1.0000
  H   H19       1.0  0.10410  0.36190  0.04290  1.0000
  H   H20       1.0  0.89590  0.63810  0.95710  1.0000
  H   H21       1.0  0.22270  0.37330  0.93600  1.0000
  H   H22       1.0  0.77730  0.62670  0.06400  1.0000
  C   C25       1.0  0.10730  0.28220  0.85070  1.0000
  C   C26       1.0  0.89270  0.71780  0.14930  1.0000
  C   C27       1.0  0.08950  0.38720  0.81690  1.0000
  C   C28       1.0  0.91050  0.61280  0.18310  1.0000
  H   H23       1.0  0.11850  0.43650  0.84430  1.0000
  H   H24       1.0  0.88150  0.56350  0.15570  1.0000
  C   C29       1.0  0.02770  0.41950  0.74110  1.0000
  C   C30       1.0  0.97230  0.58050  0.25890  1.0000
  C   C31       1.0  0.98340  0.34830  0.69810  1.0000
  C   C32       1.0  0.01660  0.65170  0.30190  1.0000
  H   H25       1.0  0.94340  0.37020  0.64620  1.0000
  H   H26       1.0  0.05660  0.62980  0.35380  1.0000
  C   C33       1.0  0.00200  0.24290  0.73680  1.0000
  C   C34       1.0  0.99800  0.75710  0.26320  1.0000
  C   C35       1.0  0.06140  0.20920  0.81250  1.0000
  C   C36       1.0  0.93860  0.79080  0.18750  1.0000
  H   H27       1.0  0.07090  0.13850  0.83800  1.0000
  H   H28       1.0  0.92910  0.86150  0.16200  1.0000
  C   C37       1.0  0.91340  0.18780  0.61400  1.0000
  C   C38       1.0  0.08660  0.81220  0.38600  1.0000
  H   H29       1.0  0.98790  0.18870  0.54570  1.0000
  H   H30       1.0  0.01210  0.81130  0.45430  1.0000
  H   H31       1.0  0.84340  0.26150  0.63100  1.0000
  H   H32       1.0  0.15660  0.73850  0.36900  1.0000
  C   C39       1.0  0.92380  0.58410  0.66250  1.0000
  C   C40       1.0  0.07620  0.41590  0.33750  1.0000
  H   H33       1.0  0.84040  0.56890  0.69860  1.0000
  H   H34       1.0  0.15960  0.43110  0.30140  1.0000
  H   H35       1.0  0.96050  0.55920  0.58290  1.0000
  H   H36       1.0  0.03950  0.44080  0.41710  1.0000
  C   C41       1.0  0.71010  0.48480  0.49880  1.0000
  C   C42       1.0  0.28990  0.51520  0.50120  1.0000
  C   C43       1.0  0.75580  0.35850  0.12560  1.0000
  C   C44       1.0  0.24420  0.64150  0.87440  1.0000
  O   O1        1.0  0.83460  0.10160  0.51000  1.0000
  O   O2        1.0  0.16540  0.89840  0.49000  1.0000
  C   C45       1.0  0.85850  0.10020  0.59580  1.0000
  C   C46       1.0  0.14150  0.89980  0.40420  1.0000
  C   C47       1.0  0.89800  0.70790  0.67970  1.0000
  C   C48       1.0  0.10200  0.29210  0.32030  1.0000
  O   O3        1.0  0.61920  0.55870  0.69650  1.0000
  O   O4        1.0  0.38080  0.44130  0.30350  1.0000
  O   O5        1.0  0.66710  0.33270  0.99090  1.0000
  O   O6        1.0  0.33290  0.66730  0.00910  1.0000
  O   O7        1.0  0.48420  0.22920  0.75860  1.0000
  O   O8        1.0  0.51580  0.77080  0.24140  1.0000
  O   O9        1.0  0.38160  0.15330  0.55530  1.0000
  O   O10       1.0  0.61840  0.84670  0.44470  1.0000
  O   O11       1.0  0.37780  0.08550  0.71680  1.0000
  O   O12       1.0  0.62220  0.91450  0.28320  1.0000
  O   O13       1.0  0.28930  0.97910  0.93790  1.0000
  O   O14       1.0  0.71070  0.02090  0.06210  1.0000
  H   H37       1.0  0.23100  0.97700  0.91300  1.0000
  H   H38       1.0  0.76900  0.02300  0.08700  1.0000
  H   H39       1.0  0.24200  0.00400  0.00700  1.0000
  H   H40       1.0  0.75800  0.99600  0.99300  1.0000
  O   O15       1.0  0.36450  0.16030  0.00460  1.0000
  O   O16       1.0  0.63550  0.83970  0.99540  1.0000
  O   O17       1.0  0.57730  0.96860  0.81820  1.0000
  O   O18       1.0  0.42270  0.03140  0.18180  1.0000
  H   H41       1.0  0.59170  0.92330  0.87370  1.0000
  H   H42       1.0  0.40830  0.07670  0.12630  1.0000
  O   O19       1.0  0.83450  0.03370  0.67070  1.0000
  O   O20       1.0  0.16550  0.96630  0.32930  1.0000
  O   O21       1.0  0.80530  0.77180  0.65310  1.0000
  O   O22       1.0  0.19470  0.22820  0.34690  1.0000
  O   O23       1.0  0.68650  0.97560  0.54470  1.0000
  O   O24       1.0  0.31350  0.02440  0.45530  1.0000
  H   H43       1.0  0.73300  0.01500  0.51100  1.0000
  H   H44       1.0  0.26700  0.98500  0.48900  1.0000
  H   H45       1.0  0.69800  0.92800  0.49500  1.0000
  H   H46       1.0  0.30200  0.07200  0.50500  1.0000
  O   O25       1.0  0.17580  0.24040  0.92140  1.0000
  O   O26       1.0  0.82420  0.75960  0.07860  1.0000
  O   O27       1.0  0.95880  0.16480  0.70400  1.0000
  O   O28       1.0  0.04120  0.83520  0.29600  1.0000
  O   O29       1.0  0.01810  0.52670  0.71130  1.0000
  O   O30       1.0  0.98190  0.47330  0.28870  1.0000
  O   O31       1.0  0.80910  0.41590  0.51090  1.0000
  O   O32       1.0  0.19090  0.58410  0.48910  1.0000
  O   O33       1.0  0.69030  0.49020  0.40640  1.0000
  O   O34       1.0  0.30970  0.50980  0.59360  1.0000
  O   O35       1.0  0.96910  0.73960  0.71760  1.0000
  O   O36       1.0  0.03090  0.26040  0.28240  1.0000
  O   O37       1.0  0.22570  0.76240  0.63720  1.0000
  O   O38       1.0  0.77430  0.23760  0.36280  1.0000
  H   H47       1.0  0.19200  0.80700  0.59800  1.0000
  H   H48       1.0  0.80800  0.19300  0.40200  1.0000
  H   H49       1.0  0.27000  0.79300  0.65800  1.0000
  H   H50       1.0  0.73000  0.20700  0.34200  1.0000
  O   O39       1.0  0.83300  0.39630  0.15090  1.0000
  O   O40       1.0  0.16700  0.60370  0.84910  1.0000
  O   O41       1.0  0.70030  0.29670  0.18010  1.0000
  O   O42       1.0  0.29970  0.70330  0.81990  1.0000
  O   O43       1.0  0.29390  0.32210  0.11060  1.0000
  O   O44       1.0  0.70610  0.67790  0.88940  1.0000
