data_image0
_chemical_formula_structural       Fe4Cl8O8C4H4
_chemical_formula_sum              "Fe4 Cl8 O8 C4 H4"
_cell_length_a       7.888
_cell_length_b       11.156
_cell_length_c       6.92
_cell_angle_alpha    90
_cell_angle_beta     108.066
_cell_angle_gamma    90

_space_group_name_H-M_alt    "P 1"
_space_group_IT_number       1

loop_
  _space_group_symop_operation_xyz
  'x, y, z'

loop_
  _atom_site_type_symbol
  _atom_site_label
  _atom_site_symmetry_multiplicity
  _atom_site_fract_x
  _atom_site_fract_y
  _atom_site_fract_z
  _atom_site_occupancy
  Fe  Fe1       1.0  0.00000  0.00000  0.00000  1.0000
  Fe  Fe2       1.0  0.00000  0.00000  0.50000  1.0000
  Fe  Fe3       1.0  0.50000  0.50000  0.00000  1.0000
  Fe  Fe4       1.0  0.50000  0.50000  0.50000  1.0000
  Cl  Cl1       1.0  0.76954  0.04660  0.16846  1.0000
  Cl  Cl2       1.0  0.23046  0.04660  0.33154  1.0000
  Cl  Cl3       1.0  0.26954  0.54660  0.16846  1.0000
  Cl  Cl4       1.0  0.73046  0.54660  0.33154  1.0000
  Cl  Cl5       1.0  0.23046  0.95340  0.83154  1.0000
  Cl  Cl6       1.0  0.76954  0.95340  0.66846  1.0000
  Cl  Cl7       1.0  0.73046  0.45340  0.83154  1.0000
  Cl  Cl8       1.0  0.26954  0.45340  0.66846  1.0000
  O   O1        1.0  0.00648  0.82170  0.08952  1.0000
  O   O2        1.0  0.99352  0.82170  0.41048  1.0000
  O   O3        1.0  0.50648  0.32170  0.08952  1.0000
  O   O4        1.0  0.49352  0.32170  0.41048  1.0000
  O   O5        1.0  0.99352  0.17830  0.91048  1.0000
  O   O6        1.0  0.00648  0.17830  0.58952  1.0000
  O   O7        1.0  0.49352  0.67830  0.91048  1.0000
  O   O8        1.0  0.50648  0.67830  0.58952  1.0000
  C   C1        1.0  0.00000  0.77094  0.25000  1.0000
  C   C2        1.0  0.50000  0.27094  0.25000  1.0000
  C   C3        1.0  0.00000  0.22906  0.75000  1.0000
  C   C4        1.0  0.50000  0.72906  0.75000  1.0000
  H   H1        1.0  0.00000  0.68600  0.25000  1.0000
  H   H2        1.0  0.50000  0.18600  0.25000  1.0000
  H   H3        1.0  0.00000  0.31400  0.75000  1.0000
  H   H4        1.0  0.50000  0.81400  0.75000  1.0000
