data_image0
_chemical_formula_structural       O2C4H6C4H6O26H4O2H2P8Zn6H2
_chemical_formula_sum              "O30 C8 H20 P8 Zn6"
_cell_length_a       8.1636
_cell_length_b       11.834
_cell_length_c       15.8029
_cell_angle_alpha    70.886
_cell_angle_beta     89.23
_cell_angle_gamma    79.109

_space_group_name_H-M_alt    "P 1"
_space_group_IT_number       1

loop_
  _space_group_symop_operation_xyz
  'x, y, z'

loop_
  _atom_site_type_symbol
  _atom_site_label
  _atom_site_symmetry_multiplicity
  _atom_site_fract_x
  _atom_site_fract_y
  _atom_site_fract_z
  _atom_site_occupancy
  O   O1        1.0  0.94500  0.67040  0.43880  1.0000
  O   O2        1.0  0.05500  0.32960  0.56120  1.0000
  C   C1        1.0  0.89520  0.80310  0.39670  1.0000
  C   C2        1.0  0.10480  0.19690  0.60330  1.0000
  C   C3        1.0  0.84790  0.83500  0.29830  1.0000
  C   C4        1.0  0.15210  0.16500  0.70170  1.0000
  H   H1        1.0  0.93932  0.80101  0.26955  1.0000
  H   H2        1.0  0.06068  0.19899  0.73045  1.0000
  H   H3        1.0  0.82277  0.92201  0.27069  1.0000
  H   H4        1.0  0.17723  0.07799  0.72931  1.0000
  H   H5        1.0  0.75155  0.80212  0.29210  1.0000
  H   H6        1.0  0.24845  0.19788  0.70790  1.0000
  C   C5        1.0  0.34550  0.51420  0.73350  1.0000
  C   C6        1.0  0.65450  0.48580  0.26650  1.0000
  C   C7        1.0  0.29650  0.39890  0.79200  1.0000
  C   C8        1.0  0.70350  0.60110  0.20800  1.0000
  H   H7        1.0  0.37034  0.33001  0.78410  1.0000
  H   H8        1.0  0.62966  0.66999  0.21590  1.0000
  H   H9        1.0  0.18391  0.39831  0.77569  1.0000
  H   H10       1.0  0.81609  0.60169  0.22431  1.0000
  H   H11       1.0  0.30399  0.39443  0.85361  1.0000
  H   H12       1.0  0.69601  0.60557  0.14639  1.0000
  O   O3        1.0  0.22380  0.80010  0.37290  1.0000
  O   O4        1.0  0.77620  0.19990  0.62710  1.0000
  O   O5        1.0  0.04030  0.99750  0.37430  1.0000
  O   O6        1.0  0.95970  0.00250  0.62570  1.0000
  O   O7        1.0  0.10760  0.81230  0.51730  1.0000
  O   O8        1.0  0.89240  0.18770  0.48270  1.0000
  O   O9        1.0  0.70590  0.98740  0.44730  1.0000
  O   O10       1.0  0.29410  0.01260  0.55270  1.0000
  O   O11       1.0  0.56520  0.83100  0.42580  1.0000
  O   O12       1.0  0.43480  0.16900  0.57420  1.0000
  O   O13       1.0  0.77260  0.77160  0.55760  1.0000
  O   O14       1.0  0.22740  0.22840  0.44240  1.0000
  O   O15       1.0  0.47290  0.38450  0.63080  1.0000
  O   O16       1.0  0.52710  0.61550  0.36920  1.0000
  O   O17       1.0  0.44780  0.61060  0.56720  1.0000
  O   O18       1.0  0.55220  0.38940  0.43280  1.0000
  O   O19       1.0  0.18870  0.51700  0.58120  1.0000
  O   O20       1.0  0.81130  0.48300  0.41880  1.0000
  O   O21       1.0  0.25790  0.76190  0.70420  1.0000
  O   O22       1.0  0.74210  0.23810  0.29580  1.0000
  O   O23       1.0  0.02950  0.64430  0.70430  1.0000
  O   O24       1.0  0.97050  0.35570  0.29570  1.0000
  O   O25       1.0  0.19530  0.60960  0.84820  1.0000
  O   O26       1.0  0.80470  0.39040  0.15180  1.0000
  O   O27       1.0  0.82200  0.51160  0.61530  1.0000
  O   O28       1.0  0.17800  0.48840  0.38470  1.0000
  H   H13       1.0  0.90826  0.45857  0.60764  1.0000
  H   H14       1.0  0.09174  0.54143  0.39236  1.0000
  H   H15       1.0  0.74572  0.52809  0.57201  1.0000
  H   H16       1.0  0.25428  0.47191  0.42799  1.0000
  O   O29       1.0  0.51300  0.51660  0.76300  1.0000
  O   O30       1.0  0.48700  0.48340  0.23700  1.0000
  H   H17       1.0  0.56083  0.47966  0.81880  1.0000
  H   H18       1.0  0.43917  0.52034  0.18120  1.0000
  P   P1        1.0  0.07870  0.85987  0.41510  1.0000
  P   P2        1.0  0.92130  0.14013  0.58490  1.0000
  P   P3        1.0  0.72090  0.85330  0.46155  1.0000
  P   P4        1.0  0.27910  0.14670  0.53845  1.0000
  P   P5        1.0  0.36364  0.50737  0.61932  1.0000
  P   P6        1.0  0.63636  0.49263  0.38068  1.0000
  P   P7        1.0  0.19690  0.64396  0.74457  1.0000
  P   P8        1.0  0.80310  0.35604  0.25543  1.0000
  Zn  Zn1       1.0  0.43210  0.71005  0.44336  1.0000
  Zn  Zn2       1.0  0.56790  0.28995  0.55664  1.0000
  Zn  Zn3       1.0  0.15651  0.89498  0.59978  1.0000
  Zn  Zn4       1.0  0.84349  0.10502  0.40022  1.0000
  Zn  Zn5       1.0  0.98213  0.64012  0.58292  1.0000
  Zn  Zn6       1.0  0.01787  0.35988  0.41708  1.0000
  H   H19       1.0  0.87940  0.61900  0.43600  1.0000
  H   H20       1.0  0.12060  0.38100  0.56400  1.0000
