data_image0
_chemical_formula_structural       V2P4O16N4C20H20
_chemical_formula_sum              "V2 P4 O16 N4 C20 H20"
_cell_length_a       8.1434
_cell_length_b       11.4343
_cell_length_c       10.0905
_cell_angle_alpha    90
_cell_angle_beta     107.06
_cell_angle_gamma    90

_space_group_name_H-M_alt    "P 1"
_space_group_IT_number       1

loop_
  _space_group_symop_operation_xyz
  'x, y, z'

loop_
  _atom_site_type_symbol
  _atom_site_label
  _atom_site_symmetry_multiplicity
  _atom_site_fract_x
  _atom_site_fract_y
  _atom_site_fract_z
  _atom_site_occupancy
  V   V1        1.0  0.00000  0.55888  0.50000  1.0000
  V   V2        1.0  0.00000  0.62928  0.00000  1.0000
  P   P1        1.0  0.72026  0.60465  0.18604  1.0000
  P   P2        1.0  0.27974  0.60465  0.81396  1.0000
  P   P3        1.0  0.71610  0.58921  0.68200  1.0000
  P   P4        1.0  0.28390  0.58921  0.31800  1.0000
  O   O1        1.0  0.57130  0.51900  0.12660  1.0000
  O   O2        1.0  0.42870  0.51900  0.87340  1.0000
  O   O3        1.0  0.80420  0.63720  0.07750  1.0000
  O   O4        1.0  0.19580  0.63720  0.92250  1.0000
  O   O5        1.0  0.84200  0.55220  0.31320  1.0000
  O   O6        1.0  0.15800  0.55220  0.68680  1.0000
  O   O7        1.0  0.64220  0.72170  0.22410  1.0000
  O   O8        1.0  0.35780  0.72170  0.77590  1.0000
  O   O9        1.0  0.83680  0.63690  0.81570  1.0000
  O   O10       1.0  0.16320  0.63690  0.18430  1.0000
  O   O11       1.0  0.57420  0.68350  0.62520  1.0000
  O   O12       1.0  0.42580  0.68350  0.37480  1.0000
  O   O13       1.0  0.80500  0.55780  0.57520  1.0000
  O   O14       1.0  0.19500  0.55780  0.42480  1.0000
  O   O15       1.0  0.62930  0.47400  0.71010  1.0000
  O   O16       1.0  0.37070  0.47400  0.28990  1.0000
  N   N1        1.0  0.00000  0.74820  0.50000  1.0000
  N   N2        1.0  0.00000  0.37150  0.50000  1.0000
  N   N3        1.0  0.00000  0.81810  0.00000  1.0000
  N   N4        1.0  0.00000  0.43860  0.00000  1.0000
  C   C1        1.0  0.98150  0.80990  0.60760  1.0000
  C   C2        1.0  0.01850  0.80990  0.39240  1.0000
  C   C3        1.0  0.98000  0.93120  0.61200  1.0000
  C   C4        1.0  0.02000  0.93120  0.38800  1.0000
  C   C5        1.0  0.00000  0.99770  0.50000  1.0000
  C   C6        1.0  0.00000  0.12180  0.50000  1.0000
  C   C7        1.0  0.95810  0.30970  0.59860  1.0000
  C   C8        1.0  0.04190  0.30970  0.40140  1.0000
  C   C9        1.0  0.95860  0.18860  0.60320  1.0000
  C   C10       1.0  0.04140  0.18860  0.39680  1.0000
  C   C11       1.0  0.85280  0.87840  0.97030  1.0000
  C   C12       1.0  0.14720  0.87840  0.02970  1.0000
  C   C13       1.0  0.84770  0.99800  0.97120  1.0000
  C   C14       1.0  0.15230  0.99800  0.02880  1.0000
  C   C15       1.0  0.00000  0.06120  0.00000  1.0000
  C   C16       1.0  0.00000  0.19500  0.00000  1.0000
  C   C17       1.0  0.86100  0.37660  0.00410  1.0000
  C   C18       1.0  0.13900  0.37660  0.99590  1.0000
  C   C19       1.0  0.85640  0.25620  0.00460  1.0000
  C   C20       1.0  0.14360  0.25620  0.99540  1.0000
  H   H1        1.0  0.56720  0.70570  0.27700  1.0000
  H   H2        1.0  0.43280  0.70570  0.72300  1.0000
  H   H3        1.0  0.56890  0.48360  0.77720  1.0000
  H   H4        1.0  0.43110  0.48360  0.22280  1.0000
  H   H5        1.0  0.95310  0.76950  0.67830  1.0000
  H   H6        1.0  0.04690  0.76950  0.32170  1.0000
  H   H7        1.0  0.95490  0.96090  0.69830  1.0000
  H   H8        1.0  0.04510  0.96090  0.30170  1.0000
  H   H9        1.0  0.94070  0.34080  0.67830  1.0000
  H   H10       1.0  0.05930  0.34080  0.32170  1.0000
  H   H11       1.0  0.86530  0.13870  0.63780  1.0000
  H   H12       1.0  0.13470  0.13870  0.36220  1.0000
  H   H13       1.0  0.75010  0.82790  0.95750  1.0000
  H   H14       1.0  0.24990  0.82790  0.04250  1.0000
  H   H15       1.0  0.75610  0.04090  0.97760  1.0000
  H   H16       1.0  0.24390  0.04090  0.02240  1.0000
  H   H17       1.0  0.75570  0.42100  0.99760  1.0000
  H   H18       1.0  0.24430  0.42100  0.00240  1.0000
  H   H19       1.0  0.74730  0.21590  0.99760  1.0000
  H   H20       1.0  0.25270  0.21590  0.00240  1.0000
