data_image0
_chemical_formula_structural       Y2C6H2C4H2C4H2C8H2C4H2C4H2C2N4O24
_chemical_formula_sum              "Y2 C32 H12 N4 O24"
_cell_length_a       8.6861
_cell_length_b       9.3756
_cell_length_c       13.832
_cell_angle_alpha    84.97
_cell_angle_beta     77.885
_cell_angle_gamma    73.859

_space_group_name_H-M_alt    "P 1"
_space_group_IT_number       1

loop_
  _space_group_symop_operation_xyz
  'x, y, z'

loop_
  _atom_site_type_symbol
  _atom_site_label
  _atom_site_symmetry_multiplicity
  _atom_site_fract_x
  _atom_site_fract_y
  _atom_site_fract_z
  _atom_site_occupancy
  Y   Y1        1.0  0.32742  0.94528  0.41548  1.0000
  Y   Y2        1.0  0.67258  0.05472  0.58452  1.0000
  C   C1        1.0  0.02810  0.77660  0.51760  1.0000
  C   C2        1.0  0.97190  0.22340  0.48240  1.0000
  C   C3        1.0  0.05490  0.62650  0.56960  1.0000
  C   C4        1.0  0.94510  0.37350  0.43040  1.0000
  C   C5        1.0  0.21090  0.53200  0.56350  1.0000
  C   C6        1.0  0.78910  0.46800  0.43650  1.0000
  H   H1        1.0  0.29970  0.55890  0.52400  1.0000
  H   H2        1.0  0.70030  0.44110  0.47600  1.0000
  C   C7        1.0  0.23460  0.39710  0.61660  1.0000
  C   C8        1.0  0.76540  0.60290  0.38340  1.0000
  C   C9        1.0  0.10230  0.35580  0.67370  1.0000
  C   C10       1.0  0.89770  0.64420  0.32630  1.0000
  H   H3        1.0  0.11690  0.26760  0.71130  1.0000
  H   H4        1.0  0.88310  0.73240  0.28870  1.0000
  C   C11       1.0  0.94810  0.44830  0.67360  1.0000
  C   C12       1.0  0.05190  0.55170  0.32640  1.0000
  C   C13       1.0  0.92090  0.58430  0.62440  1.0000
  C   C14       1.0  0.07910  0.41570  0.37560  1.0000
  H   H5        1.0  0.81570  0.64600  0.62780  1.0000
  H   H6        1.0  0.18430  0.35400  0.37220  1.0000
  C   C15       1.0  0.40130  0.29250  0.61000  1.0000
  C   C16       1.0  0.59870  0.70750  0.39000  1.0000
  C   C17       1.0  0.60070  0.10110  0.35850  1.0000
  C   C18       1.0  0.39930  0.89890  0.64150  1.0000
  C   C19       1.0  0.72230  0.17280  0.29260  1.0000
  C   C20       1.0  0.27770  0.82720  0.70740  1.0000
  C   C21       1.0  0.88870  0.10860  0.28720  1.0000
  C   C22       1.0  0.11130  0.89140  0.71280  1.0000
  H   H7        1.0  0.92380  0.02520  0.32670  1.0000
  H   H8        1.0  0.07620  0.97480  0.67330  1.0000
  C   C23       1.0  0.00280  0.16830  0.22310  1.0000
  C   C24       1.0  0.99720  0.83170  0.77690  1.0000
  C   C25       1.0  0.95010  0.29700  0.16790  1.0000
  C   C26       1.0  0.04990  0.70300  0.83210  1.0000
  H   H9        1.0  0.02490  0.33980  0.12610  1.0000
  H   H10       1.0  0.97510  0.66020  0.87390  1.0000
  C   C27       1.0  0.78520  0.35970  0.17640  1.0000
  C   C28       1.0  0.21480  0.64030  0.82360  1.0000
  C   C29       1.0  0.66920  0.29870  0.23650  1.0000
  C   C30       1.0  0.33080  0.70130  0.76350  1.0000
  H   H11       1.0  0.55830  0.34170  0.23890  1.0000
  H   H12       1.0  0.44170  0.65830  0.76110  1.0000
  C   C31       1.0  0.18290  0.09530  0.21140  1.0000
  C   C32       1.0  0.81710  0.90470  0.78860  1.0000
  N   N1        1.0  0.80680  0.39880  0.72850  1.0000
  N   N2        1.0  0.19320  0.60120  0.27150  1.0000
  N   N3        1.0  0.73020  0.49530  0.11650  1.0000
  N   N4        1.0  0.26980  0.50470  0.88350  1.0000
  O   O1        1.0  0.14770  0.80760  0.46066  1.0000
  O   O2        1.0  0.85230  0.19240  0.53934  1.0000
  O   O3        1.0  0.88770  0.86130  0.53406  1.0000
  O   O4        1.0  0.11230  0.13870  0.46594  1.0000
  O   O5        1.0  0.50410  0.28730  0.53091  1.0000
  O   O6        1.0  0.49590  0.71270  0.46909  1.0000
  O   O7        1.0  0.43380  0.20570  0.68258  1.0000
  O   O8        1.0  0.56620  0.79430  0.31742  1.0000
  O   O9        1.0  0.82900  0.29880  0.78910  1.0000
  O   O10       1.0  0.17100  0.70120  0.21090  1.0000
  O   O11       1.0  0.67360  0.45550  0.70520  1.0000
  O   O12       1.0  0.32640  0.54450  0.29480  1.0000
  O   O13       1.0  0.46170  0.12490  0.33851  1.0000
  O   O14       1.0  0.53830  0.87510  0.66149  1.0000
  O   O15       1.0  0.64770  0.01710  0.42860  1.0000
  O   O16       1.0  0.35230  0.98290  0.57140  1.0000
  O   O17       1.0  0.23280  0.99680  0.27268  1.0000
  O   O18       1.0  0.76720  0.00320  0.72732  1.0000
  O   O19       1.0  0.27170  0.13880  0.13767  1.0000
  O   O20       1.0  0.72830  0.86120  0.86233  1.0000
  O   O21       1.0  0.59460  0.52400  0.09830  1.0000
  O   O22       1.0  0.40540  0.47600  0.90170  1.0000
  O   O23       1.0  0.82470  0.57010  0.08650  1.0000
  O   O24       1.0  0.17530  0.42990  0.91350  1.0000
