data_image0
_chemical_formula_structural       NiC6H2C4O10H4O2H4
_chemical_formula_sum              "Ni1 C10 H10 O12"
_cell_length_a       7.2115
_cell_length_b       9.347
_cell_length_c       10.6322
_cell_angle_alpha    112.72
_cell_angle_beta     108.83
_cell_angle_gamma    95.582

_space_group_name_H-M_alt    "P 1"
_space_group_IT_number       1

loop_
  _space_group_symop_operation_xyz
  'x, y, z'

loop_
  _atom_site_type_symbol
  _atom_site_label
  _atom_site_symmetry_multiplicity
  _atom_site_fract_x
  _atom_site_fract_y
  _atom_site_fract_z
  _atom_site_occupancy
  Ni  Ni1       1.0  0.00000  1.00000  1.00000  1.0000
  C   C1        1.0  0.42401  0.39111  0.04216  1.0000
  C   C2        1.0  0.57599  0.60889  0.95784  1.0000
  C   C3        1.0  0.43069  0.33541  0.90138  1.0000
  C   C4        1.0  0.56931  0.66459  0.09862  1.0000
  C   C5        1.0  0.50542  0.44605  0.86090  1.0000
  C   C6        1.0  0.49458  0.55395  0.13910  1.0000
  H   H1        1.0  0.50830  0.41060  0.76710  1.0000
  H   H2        1.0  0.49170  0.58940  0.23290  1.0000
  C   C7        1.0  0.32515  0.28168  0.08810  1.0000
  C   C8        1.0  0.67485  0.71832  0.91190  1.0000
  C   C9        1.0  0.36527  0.15800  0.79578  1.0000
  C   C10       1.0  0.63473  0.84200  0.20422  1.0000
  O   O1        1.0  0.14545  0.20052  0.00054  1.0000
  O   O2        1.0  0.85455  0.79948  0.99946  1.0000
  O   O3        1.0  0.42075  0.28245  0.20874  1.0000
  O   O4        1.0  0.57925  0.71755  0.79126  1.0000
  O   O5        1.0  0.25860  0.11600  0.66391  1.0000
  O   O6        1.0  0.74140  0.88400  0.33609  1.0000
  O   O7        1.0  0.42488  0.06463  0.84885  1.0000
  O   O8        1.0  0.57512  0.93537  0.15115  1.0000
  O   O9        1.0  0.18379  0.05465  0.21508  1.0000
  O   O10       1.0  0.81621  0.94535  0.78492  1.0000
  H   H3        1.0  0.27670  0.12940  0.22940  1.0000
  H   H4        1.0  0.72330  0.87060  0.77060  1.0000
  H   H5        1.0  0.13530  0.09310  0.28060  1.0000
  H   H6        1.0  0.86470  0.90690  0.71940  1.0000
  O   O11       1.0  0.78922  0.11312  0.06521  1.0000
  O   O12       1.0  0.21078  0.88688  0.93479  1.0000
  H   H7        1.0  0.74430  0.07020  0.11040  1.0000
  H   H8        1.0  0.25570  0.92980  0.88960  1.0000
  H   H9        1.0  0.68790  0.10880  0.99370  1.0000
  H   H10       1.0  0.31210  0.89120  0.00630  1.0000
