data_image0
_chemical_formula_structural       Zn6Br4O16C8H4C4H4C8H4C4H4C8O8C8H4C4H4C4
_chemical_formula_sum              "Zn6 Br4 O24 C48 H24"
_cell_length_a       12.9467
_cell_length_b       9.4171
_cell_length_c       18.337
_cell_angle_alpha    90
_cell_angle_beta     108.906
_cell_angle_gamma    90

_space_group_name_H-M_alt    "P 1"
_space_group_IT_number       1

loop_
  _space_group_symop_operation_xyz
  'x, y, z'

loop_
  _atom_site_type_symbol
  _atom_site_label
  _atom_site_symmetry_multiplicity
  _atom_site_fract_x
  _atom_site_fract_y
  _atom_site_fract_z
  _atom_site_occupancy
  Zn  Zn1       1.0  0.79992  0.96435  0.07148  1.0000
  Zn  Zn2       1.0  0.70008  0.46435  0.42852  1.0000
  Zn  Zn3       1.0  0.20008  0.03565  0.92852  1.0000
  Zn  Zn4       1.0  0.29992  0.53565  0.57148  1.0000
  Zn  Zn5       1.0  1.00000  0.00000  0.00000  1.0000
  Zn  Zn6       1.0  0.50000  0.50000  0.50000  1.0000
  Br  Br1       1.0  0.65501  0.84604  0.09624  1.0000
  Br  Br2       1.0  0.84499  0.34604  0.40376  1.0000
  Br  Br3       1.0  0.34499  0.15396  0.90376  1.0000
  Br  Br4       1.0  0.15501  0.65396  0.59624  1.0000
  O   O1        1.0  0.89030  0.07330  0.15951  1.0000
  O   O2        1.0  0.60970  0.57330  0.34049  1.0000
  O   O3        1.0  0.10970  0.92670  0.84049  1.0000
  O   O4        1.0  0.39030  0.42670  0.65951  1.0000
  O   O5        1.0  0.02410  0.08980  0.10704  1.0000
  O   O6        1.0  0.47590  0.58980  0.39296  1.0000
  O   O7        1.0  0.97590  0.91020  0.89296  1.0000
  O   O8        1.0  0.52410  0.41020  0.60704  1.0000
  O   O9        1.0  0.23000  0.40650  0.48557  1.0000
  O   O10       1.0  0.27000  0.90650  0.01443  1.0000
  O   O11       1.0  0.77000  0.59350  0.51443  1.0000
  O   O12       1.0  0.73000  0.09350  0.98557  1.0000
  O   O13       1.0  0.37220  0.37540  0.44316  1.0000
  O   O14       1.0  0.12780  0.87540  0.05684  1.0000
  O   O15       1.0  0.62780  0.62460  0.55684  1.0000
  O   O16       1.0  0.87220  0.12460  0.94316  1.0000
  C   C1        1.0  0.06090  0.16800  0.23390  1.0000
  C   C2        1.0  0.43910  0.66800  0.26610  1.0000
  C   C3        1.0  0.93910  0.83200  0.76610  1.0000
  C   C4        1.0  0.56090  0.33200  0.73390  1.0000
  C   C5        1.0  0.17200  0.18460  0.24410  1.0000
  C   C6        1.0  0.32800  0.68460  0.25590  1.0000
  C   C7        1.0  0.82800  0.81540  0.75590  1.0000
  C   C8        1.0  0.67200  0.31540  0.74410  1.0000
  H   H1        1.0  0.19950  0.15350  0.20590  1.0000
  H   H2        1.0  0.30050  0.65350  0.29410  1.0000
  H   H3        1.0  0.80050  0.84650  0.79410  1.0000
  H   H4        1.0  0.69950  0.34650  0.70590  1.0000
  C   C9        1.0  0.24080  0.24590  0.30940  1.0000
  C   C10       1.0  0.25920  0.74590  0.19060  1.0000
  C   C11       1.0  0.75920  0.75410  0.69060  1.0000
  C   C12       1.0  0.74080  0.25410  0.80940  1.0000
  H   H5        1.0  0.31430  0.25790  0.31510  1.0000
  H   H6        1.0  0.18570  0.75790  0.18490  1.0000
  H   H7        1.0  0.68570  0.74210  0.68490  1.0000
  H   H8        1.0  0.81430  0.24210  0.81510  1.0000
  C   C13       1.0  0.20040  0.29000  0.36710  1.0000
  C   C14       1.0  0.29960  0.79000  0.13290  1.0000
  C   C15       1.0  0.79960  0.71000  0.63290  1.0000
  C   C16       1.0  0.70040  0.21000  0.86710  1.0000
  C   C17       1.0  0.09080  0.27390  0.35790  1.0000
  C   C18       1.0  0.40920  0.77390  0.14210  1.0000
  C   C19       1.0  0.90920  0.72610  0.64210  1.0000
  C   C20       1.0  0.59080  0.22610  0.85790  1.0000
  H   H9        1.0  0.06350  0.30560  0.39610  1.0000
  H   H10       1.0  0.43650  0.80560  0.10390  1.0000
  H   H11       1.0  0.93650  0.69440  0.60390  1.0000
  H   H12       1.0  0.56350  0.19440  0.89610  1.0000
  C   C21       1.0  0.02150  0.21060  0.29200  1.0000
  C   C22       1.0  0.47850  0.71060  0.20800  1.0000
  C   C23       1.0  0.97850  0.78940  0.70800  1.0000
  C   C24       1.0  0.52150  0.28940  0.79200  1.0000
  H   H13       1.0  0.94830  0.19690  0.28680  1.0000
  H   H14       1.0  0.55170  0.69690  0.21320  1.0000
  H   H15       1.0  0.05170  0.80310  0.71320  1.0000
  H   H16       1.0  0.44830  0.30310  0.78680  1.0000
  C   C25       1.0  0.98690  0.10530  0.16140  1.0000
  C   C26       1.0  0.51310  0.60530  0.33860  1.0000
  C   C27       1.0  0.01310  0.89470  0.83860  1.0000
  C   C28       1.0  0.48690  0.39470  0.66140  1.0000
  C   C29       1.0  0.27460  0.36290  0.43750  1.0000
  C   C30       1.0  0.22540  0.86290  0.06250  1.0000
  C   C31       1.0  0.72540  0.63710  0.56250  1.0000
  C   C32       1.0  0.77460  0.13710  0.93750  1.0000
  O   O17       1.0  0.10880  0.15430  0.97242  1.0000
  O   O18       1.0  0.39120  0.65430  0.52758  1.0000
  O   O19       1.0  0.89120  0.84570  0.02758  1.0000
  O   O20       1.0  0.60880  0.34570  0.47242  1.0000
  O   O21       1.0  0.05960  0.26460  0.85900  1.0000
  O   O22       1.0  0.44040  0.76460  0.64100  1.0000
  O   O23       1.0  0.94040  0.73540  0.14100  1.0000
  O   O24       1.0  0.55960  0.23540  0.35900  1.0000
  C   C33       1.0  0.03160  0.38380  0.96510  1.0000
  C   C34       1.0  0.46840  0.88380  0.53490  1.0000
  C   C35       1.0  0.96840  0.61620  0.03490  1.0000
  C   C36       1.0  0.53160  0.11620  0.46510  1.0000
  C   C37       1.0  0.06080  0.39300  0.04490  1.0000
  C   C38       1.0  0.43920  0.89300  0.45510  1.0000
  C   C39       1.0  0.93920  0.60700  0.95510  1.0000
  C   C40       1.0  0.56080  0.10700  0.54490  1.0000
  H   H17       1.0  0.10150  0.32050  0.07540  1.0000
  H   H18       1.0  0.39850  0.82050  0.42460  1.0000
  H   H19       1.0  0.89850  0.67950  0.92460  1.0000
  H   H20       1.0  0.60150  0.17950  0.57540  1.0000
  C   C41       1.0  0.96950  0.49290  0.92100  1.0000
  C   C42       1.0  0.53050  0.99290  0.57900  1.0000
  C   C43       1.0  0.03050  0.50710  0.07900  1.0000
  C   C44       1.0  0.46950  0.00710  0.42100  1.0000
  H   H21       1.0  0.94840  0.48800  0.86760  1.0000
  H   H22       1.0  0.55160  0.98800  0.63240  1.0000
  H   H23       1.0  0.05160  0.51200  0.13240  1.0000
  H   H24       1.0  0.44840  0.01200  0.36760  1.0000
  C   C45       1.0  0.06710  0.26270  0.92790  1.0000
  C   C46       1.0  0.43290  0.76270  0.57210  1.0000
  C   C47       1.0  0.93290  0.73730  0.07210  1.0000
  C   C48       1.0  0.56710  0.23730  0.42790  1.0000
