data_image0
_chemical_formula_structural       Zn6I4O16C8H4C4H4C8H4C4H4C8O8C8H4C4H4C4
_chemical_formula_sum              "Zn6 I4 O24 C48 H24"
_cell_length_a       13.2282
_cell_length_b       9.3686
_cell_length_c       18.659
_cell_angle_alpha    90
_cell_angle_beta     110.27
_cell_angle_gamma    90

_space_group_name_H-M_alt    "P 1"
_space_group_IT_number       1

loop_
  _space_group_symop_operation_xyz
  'x, y, z'

loop_
  _atom_site_type_symbol
  _atom_site_label
  _atom_site_symmetry_multiplicity
  _atom_site_fract_x
  _atom_site_fract_y
  _atom_site_fract_z
  _atom_site_occupancy
  Zn  Zn1       1.0  0.80504  0.96751  0.06861  1.0000
  Zn  Zn2       1.0  0.69496  0.46751  0.43139  1.0000
  Zn  Zn3       1.0  0.19496  0.03249  0.93139  1.0000
  Zn  Zn4       1.0  0.30504  0.53249  0.56861  1.0000
  Zn  Zn5       1.0  0.00000  0.00000  0.00000  1.0000
  Zn  Zn6       1.0  0.50000  0.50000  0.50000  1.0000
  I   I1        1.0  0.64947  0.83850  0.09152  1.0000
  I   I2        1.0  0.85053  0.33850  0.40848  1.0000
  I   I3        1.0  0.35053  0.16150  0.90848  1.0000
  I   I4        1.0  0.14947  0.66150  0.59152  1.0000
  O   O1        1.0  0.89540  0.07850  0.15530  1.0000
  O   O2        1.0  0.60460  0.57850  0.34470  1.0000
  O   O3        1.0  0.10460  0.92150  0.84470  1.0000
  O   O4        1.0  0.39540  0.42150  0.65530  1.0000
  O   O5        1.0  0.02610  0.09250  0.10540  1.0000
  O   O6        1.0  0.47390  0.59250  0.39460  1.0000
  O   O7        1.0  0.97390  0.90750  0.89460  1.0000
  O   O8        1.0  0.52610  0.40750  0.60540  1.0000
  O   O9        1.0  0.23520  0.40190  0.48320  1.0000
  O   O10       1.0  0.26480  0.90190  0.01680  1.0000
  O   O11       1.0  0.76480  0.59810  0.51680  1.0000
  O   O12       1.0  0.73520  0.09810  0.98320  1.0000
  O   O13       1.0  0.37310  0.37510  0.44260  1.0000
  O   O14       1.0  0.12690  0.87510  0.05740  1.0000
  O   O15       1.0  0.62690  0.62490  0.55740  1.0000
  O   O16       1.0  0.87310  0.12490  0.94260  1.0000
  C   C1        1.0  0.06520  0.17180  0.23100  1.0000
  C   C2        1.0  0.43480  0.67180  0.26900  1.0000
  C   C3        1.0  0.93480  0.82820  0.76900  1.0000
  C   C4        1.0  0.56520  0.32820  0.73100  1.0000
  C   C5        1.0  0.02730  0.21120  0.28820  1.0000
  C   C6        1.0  0.47270  0.71120  0.21180  1.0000
  C   C7        1.0  0.97270  0.78880  0.71180  1.0000
  C   C8        1.0  0.52730  0.28880  0.78820  1.0000
  H   H1        1.0  0.95530  0.19630  0.28210  1.0000
  H   H2        1.0  0.54470  0.69630  0.21790  1.0000
  H   H3        1.0  0.04470  0.80370  0.71790  1.0000
  H   H4        1.0  0.45530  0.30370  0.78210  1.0000
  C   C9        1.0  0.09600  0.27310  0.35500  1.0000
  C   C10       1.0  0.40400  0.77310  0.14500  1.0000
  C   C11       1.0  0.90400  0.72690  0.64500  1.0000
  C   C12       1.0  0.59600  0.22690  0.85500  1.0000
  H   H5        1.0  0.06950  0.30250  0.39270  1.0000
  H   H6        1.0  0.43050  0.80250  0.10730  1.0000
  H   H7        1.0  0.93050  0.69750  0.60730  1.0000
  H   H8        1.0  0.56950  0.19750  0.89270  1.0000
  C   C13       1.0  0.20370  0.29090  0.36520  1.0000
  C   C14       1.0  0.29630  0.79090  0.13480  1.0000
  C   C15       1.0  0.79630  0.70910  0.63480  1.0000
  C   C16       1.0  0.70370  0.20910  0.86520  1.0000
  C   C17       1.0  0.24060  0.24870  0.30760  1.0000
  C   C18       1.0  0.25940  0.74870  0.19240  1.0000
  C   C19       1.0  0.75940  0.75130  0.69240  1.0000
  C   C20       1.0  0.74060  0.25130  0.80760  1.0000
  H   H9        1.0  0.31300  0.26020  0.31380  1.0000
  H   H10       1.0  0.18700  0.76020  0.18620  1.0000
  H   H11       1.0  0.68700  0.73980  0.68620  1.0000
  H   H12       1.0  0.81300  0.23980  0.81380  1.0000
  C   C21       1.0  0.17200  0.19030  0.24160  1.0000
  C   C22       1.0  0.32800  0.69030  0.25840  1.0000
  C   C23       1.0  0.82800  0.80970  0.75840  1.0000
  C   C24       1.0  0.67200  0.30970  0.74160  1.0000
  H   H13       1.0  0.19820  0.16270  0.20340  1.0000
  H   H14       1.0  0.30180  0.66270  0.29660  1.0000
  H   H15       1.0  0.80180  0.83730  0.79660  1.0000
  H   H16       1.0  0.69820  0.33730  0.70340  1.0000
  C   C25       1.0  0.99000  0.10890  0.15800  1.0000
  C   C26       1.0  0.51000  0.60890  0.34200  1.0000
  C   C27       1.0  0.01000  0.89110  0.84200  1.0000
  C   C28       1.0  0.49000  0.39110  0.65800  1.0000
  C   C29       1.0  0.27680  0.36150  0.43600  1.0000
  C   C30       1.0  0.22320  0.86150  0.06400  1.0000
  C   C31       1.0  0.72320  0.63850  0.56400  1.0000
  C   C32       1.0  0.77680  0.13850  0.93600  1.0000
  O   O17       1.0  0.89350  0.84690  0.02690  1.0000
  O   O18       1.0  0.60650  0.34690  0.47310  1.0000
  O   O19       1.0  0.10650  0.15310  0.97310  1.0000
  O   O20       1.0  0.39350  0.65310  0.52690  1.0000
  O   O21       1.0  0.94130  0.73460  0.13840  1.0000
  O   O22       1.0  0.55870  0.23460  0.36160  1.0000
  O   O23       1.0  0.05870  0.26540  0.86160  1.0000
  O   O24       1.0  0.44130  0.76540  0.63840  1.0000
  C   C33       1.0  0.96860  0.61470  0.03340  1.0000
  C   C34       1.0  0.53140  0.11470  0.46660  1.0000
  C   C35       1.0  0.03140  0.38530  0.96660  1.0000
  C   C36       1.0  0.46860  0.88530  0.53340  1.0000
  C   C37       1.0  0.03350  0.50920  0.07850  1.0000
  C   C38       1.0  0.46650  0.00920  0.42150  1.0000
  C   C39       1.0  0.96650  0.49080  0.92150  1.0000
  C   C40       1.0  0.53350  0.99080  0.57850  1.0000
  H   H17       1.0  0.05640  0.51610  0.13150  1.0000
  H   H18       1.0  0.44360  0.01610  0.36850  1.0000
  H   H19       1.0  0.94360  0.48390  0.86850  1.0000
  H   H20       1.0  0.55640  0.98390  0.63150  1.0000
  C   C41       1.0  0.93580  0.60590  0.95510  1.0000
  C   C42       1.0  0.56420  0.10590  0.54490  1.0000
  C   C43       1.0  0.06420  0.39410  0.04490  1.0000
  C   C44       1.0  0.43580  0.89410  0.45510  1.0000
  H   H21       1.0  0.89300  0.67740  0.92500  1.0000
  H   H22       1.0  0.60700  0.17740  0.57500  1.0000
  H   H23       1.0  0.10700  0.32260  0.07500  1.0000
  H   H24       1.0  0.39300  0.82260  0.42500  1.0000
  C   C45       1.0  0.93480  0.73800  0.07200  1.0000
  C   C46       1.0  0.56520  0.23800  0.42800  1.0000
  C   C47       1.0  0.06520  0.26200  0.92800  1.0000
  C   C48       1.0  0.43480  0.76200  0.57200  1.0000
