data_image0
_chemical_formula_structural       CuO6N2C6H2C2H2C4O2C2H2
_chemical_formula_sum              "Cu1 O8 N2 C14 H6"
_cell_length_a       7.2742
_cell_length_b       7.512
_cell_length_c       10.7141
_cell_angle_alpha    80.059
_cell_angle_beta     74.5
_cell_angle_gamma    69.463

_space_group_name_H-M_alt    "P 1"
_space_group_IT_number       1

loop_
  _space_group_symop_operation_xyz
  'x, y, z'

loop_
  _atom_site_type_symbol
  _atom_site_label
  _atom_site_symmetry_multiplicity
  _atom_site_fract_x
  _atom_site_fract_y
  _atom_site_fract_z
  _atom_site_occupancy
  Cu  Cu1       1.0  0.00000  0.00000  0.50000  1.0000
  O   O1        1.0  0.06544  0.89930  0.33221  1.0000
  O   O2        1.0  0.93456  0.10070  0.66779  1.0000
  O   O3        1.0  0.31970  0.72660  0.18976  1.0000
  O   O4        1.0  0.68030  0.27340  0.81024  1.0000
  O   O5        1.0  0.89210  0.70800  0.63438  1.0000
  O   O6        1.0  0.10790  0.29200  0.36562  1.0000
  N   N1        1.0  0.28570  0.85510  0.49824  1.0000
  N   N2        1.0  0.71430  0.14490  0.50176  1.0000
  C   C1        1.0  0.38240  0.76980  0.38763  1.0000
  C   C2        1.0  0.61760  0.23020  0.61237  1.0000
  C   C3        1.0  0.24850  0.79960  0.29394  1.0000
  C   C4        1.0  0.75150  0.20040  0.70606  1.0000
  C   C5        1.0  0.58460  0.66870  0.36420  1.0000
  C   C6        1.0  0.41540  0.33130  0.63580  1.0000
  H   H1        1.0  0.63600  0.61700  0.29600  1.0000
  H   H2        1.0  0.36400  0.38300  0.70400  1.0000
  C   C7        1.0  0.69280  0.65940  0.45558  1.0000
  C   C8        1.0  0.30720  0.34060  0.54442  1.0000
  H   H3        1.0  0.83100  0.59500  0.43800  1.0000
  H   H4        1.0  0.16900  0.40500  0.56200  1.0000
  C   C9        1.0  0.59360  0.74740  0.56914  1.0000
  C   C10       1.0  0.40640  0.25260  0.43086  1.0000
  C   C11       1.0  0.70560  0.75010  0.66963  1.0000
  C   C12       1.0  0.29440  0.24990  0.33037  1.0000
  O   O7        1.0  0.60270  0.80170  0.77788  1.0000
  O   O8        1.0  0.39730  0.19830  0.22212  1.0000
  C   C13       1.0  0.38780  0.84250  0.58737  1.0000
  C   C14       1.0  0.61220  0.15750  0.41263  1.0000
  H   H5        1.0  0.31100  0.90700  0.66130  1.0000
  H   H6        1.0  0.68900  0.09300  0.33870  1.0000
