data_image0
_chemical_formula_structural       Zn8P8O40C16H8C8H8C16H8C8H8C8
_chemical_formula_sum              "Zn8 P8 O40 C56 H32"
_cell_length_a       17.804
_cell_length_b       19.34
_cell_length_c       10.242
_cell_angle_alpha    90
_cell_angle_beta     119.51
_cell_angle_gamma    90

_space_group_name_H-M_alt    "P 1"
_space_group_IT_number       1

loop_
  _space_group_symop_operation_xyz
  'x, y, z'

loop_
  _atom_site_type_symbol
  _atom_site_label
  _atom_site_symmetry_multiplicity
  _atom_site_fract_x
  _atom_site_fract_y
  _atom_site_fract_z
  _atom_site_occupancy
  Zn  Zn1       1.0  0.61068  0.55091  0.47772  1.0000
  Zn  Zn2       1.0  0.38932  0.55091  0.02228  1.0000
  Zn  Zn3       1.0  0.11068  0.05091  0.47772  1.0000
  Zn  Zn4       1.0  0.88932  0.05091  0.02228  1.0000
  Zn  Zn5       1.0  0.38932  0.44909  0.52228  1.0000
  Zn  Zn6       1.0  0.61068  0.44909  0.97772  1.0000
  Zn  Zn7       1.0  0.88932  0.94909  0.52228  1.0000
  Zn  Zn8       1.0  0.11068  0.94909  0.97772  1.0000
  P   P1        1.0  0.40667  0.57122  0.34552  1.0000
  P   P2        1.0  0.59333  0.57122  0.15448  1.0000
  P   P3        1.0  0.90667  0.07122  0.34552  1.0000
  P   P4        1.0  0.09333  0.07122  0.15448  1.0000
  P   P5        1.0  0.59333  0.42878  0.65448  1.0000
  P   P6        1.0  0.40667  0.42878  0.84552  1.0000
  P   P7        1.0  0.09333  0.92878  0.65448  1.0000
  P   P8        1.0  0.90667  0.92878  0.84552  1.0000
  O   O1        1.0  0.50060  0.58139  0.45730  1.0000
  O   O2        1.0  0.49940  0.58139  0.04270  1.0000
  O   O3        1.0  0.00060  0.08139  0.45730  1.0000
  O   O4        1.0  0.99940  0.08139  0.04270  1.0000
  O   O5        1.0  0.49940  0.41861  0.54270  1.0000
  O   O6        1.0  0.50060  0.41861  0.95730  1.0000
  O   O7        1.0  0.99940  0.91861  0.54270  1.0000
  O   O8        1.0  0.00060  0.91861  0.95730  1.0000
  O   O9        1.0  0.39150  0.53038  0.20810  1.0000
  O   O10       1.0  0.60850  0.53038  0.29190  1.0000
  O   O11       1.0  0.89150  0.03038  0.20810  1.0000
  O   O12       1.0  0.10850  0.03038  0.29190  1.0000
  O   O13       1.0  0.60850  0.46962  0.79190  1.0000
  O   O14       1.0  0.39150  0.46962  0.70810  1.0000
  O   O15       1.0  0.10850  0.96962  0.79190  1.0000
  O   O16       1.0  0.89150  0.96962  0.70810  1.0000
  O   O17       1.0  0.35840  0.53791  0.41750  1.0000
  O   O18       1.0  0.64160  0.53791  0.08250  1.0000
  O   O19       1.0  0.85840  0.03791  0.41750  1.0000
  O   O20       1.0  0.14160  0.03791  0.08250  1.0000
  O   O21       1.0  0.64160  0.46209  0.58250  1.0000
  O   O22       1.0  0.35840  0.46209  0.91750  1.0000
  O   O23       1.0  0.14160  0.96209  0.58250  1.0000
  O   O24       1.0  0.85840  0.96209  0.91750  1.0000
  O   O25       1.0  0.30310  0.90920  0.13560  1.0000
  O   O26       1.0  0.69690  0.90920  0.36440  1.0000
  O   O27       1.0  0.80310  0.40920  0.13560  1.0000
  O   O28       1.0  0.19690  0.40920  0.36440  1.0000
  O   O29       1.0  0.69690  0.09080  0.86440  1.0000
  O   O30       1.0  0.30310  0.09080  0.63560  1.0000
  O   O31       1.0  0.19690  0.59080  0.86440  1.0000
  O   O32       1.0  0.80310  0.59080  0.63560  1.0000
  O   O33       1.0  0.17590  0.86720  0.08540  1.0000
  O   O34       1.0  0.82410  0.86720  0.41460  1.0000
  O   O35       1.0  0.67590  0.36720  0.08540  1.0000
  O   O36       1.0  0.32410  0.36720  0.41460  1.0000
  O   O37       1.0  0.82410  0.13280  0.91460  1.0000
  O   O38       1.0  0.17590  0.13280  0.58540  1.0000
  O   O39       1.0  0.32410  0.63280  0.91460  1.0000
  O   O40       1.0  0.67590  0.63280  0.58540  1.0000
  C   C1        1.0  0.36260  0.65760  0.28920  1.0000
  C   C2        1.0  0.63740  0.65760  0.21080  1.0000
  C   C3        1.0  0.86260  0.15760  0.28920  1.0000
  C   C4        1.0  0.13740  0.15760  0.21080  1.0000
  C   C5        1.0  0.63740  0.34240  0.71080  1.0000
  C   C6        1.0  0.36260  0.34240  0.78920  1.0000
  C   C7        1.0  0.13740  0.84240  0.71080  1.0000
  C   C8        1.0  0.86260  0.84240  0.78920  1.0000
  C   C9        1.0  0.41540  0.71360  0.31260  1.0000
  C   C10       1.0  0.58460  0.71360  0.18740  1.0000
  C   C11       1.0  0.91540  0.21360  0.31260  1.0000
  C   C12       1.0  0.08460  0.21360  0.18740  1.0000
  C   C13       1.0  0.58460  0.28640  0.68740  1.0000
  C   C14       1.0  0.41540  0.28640  0.81260  1.0000
  C   C15       1.0  0.08460  0.78640  0.68740  1.0000
  C   C16       1.0  0.91540  0.78640  0.81260  1.0000
  H   H1        1.0  0.47500  0.70770  0.36370  1.0000
  H   H2        1.0  0.52500  0.70770  0.13630  1.0000
  H   H3        1.0  0.97500  0.20770  0.36370  1.0000
  H   H4        1.0  0.02500  0.20770  0.13630  1.0000
  H   H5        1.0  0.52500  0.29230  0.63630  1.0000
  H   H6        1.0  0.47500  0.29230  0.86370  1.0000
  H   H7        1.0  0.02500  0.79230  0.63630  1.0000
  H   H8        1.0  0.97500  0.79230  0.86370  1.0000
  C   C17       1.0  0.38040  0.78040  0.25970  1.0000
  C   C18       1.0  0.61960  0.78040  0.24030  1.0000
  C   C19       1.0  0.88040  0.28040  0.25970  1.0000
  C   C20       1.0  0.11960  0.28040  0.24030  1.0000
  C   C21       1.0  0.61960  0.21960  0.74030  1.0000
  C   C22       1.0  0.38040  0.21960  0.75970  1.0000
  C   C23       1.0  0.11960  0.71960  0.74030  1.0000
  C   C24       1.0  0.88040  0.71960  0.75970  1.0000
  H   H9        1.0  0.41670  0.81740  0.27180  1.0000
  H   H10       1.0  0.58330  0.81740  0.22820  1.0000
  H   H11       1.0  0.91670  0.31740  0.27180  1.0000
  H   H12       1.0  0.08330  0.31740  0.22820  1.0000
  H   H13       1.0  0.58330  0.18260  0.72820  1.0000
  H   H14       1.0  0.41670  0.18260  0.77180  1.0000
  H   H15       1.0  0.08330  0.68260  0.72820  1.0000
  H   H16       1.0  0.91670  0.68260  0.77180  1.0000
  C   C25       1.0  0.29400  0.79000  0.19160  1.0000
  C   C26       1.0  0.70600  0.79000  0.30840  1.0000
  C   C27       1.0  0.79400  0.29000  0.19160  1.0000
  C   C28       1.0  0.20600  0.29000  0.30840  1.0000
  C   C29       1.0  0.70600  0.21000  0.80840  1.0000
  C   C30       1.0  0.29400  0.21000  0.69160  1.0000
  C   C31       1.0  0.20600  0.71000  0.80840  1.0000
  C   C32       1.0  0.79400  0.71000  0.69160  1.0000
  C   C33       1.0  0.24100  0.73550  0.17060  1.0000
  C   C34       1.0  0.75900  0.73550  0.32940  1.0000
  C   C35       1.0  0.74100  0.23550  0.17060  1.0000
  C   C36       1.0  0.25900  0.23550  0.32940  1.0000
  C   C37       1.0  0.75900  0.26450  0.82940  1.0000
  C   C38       1.0  0.24100  0.26450  0.67060  1.0000
  C   C39       1.0  0.25900  0.76450  0.82940  1.0000
  C   C40       1.0  0.74100  0.76450  0.67060  1.0000
  H   H17       1.0  0.18170  0.74260  0.12420  1.0000
  H   H18       1.0  0.81830  0.74260  0.37580  1.0000
  H   H19       1.0  0.68170  0.24260  0.12420  1.0000
  H   H20       1.0  0.31830  0.24260  0.37580  1.0000
  H   H21       1.0  0.81830  0.25740  0.87580  1.0000
  H   H22       1.0  0.18170  0.25740  0.62420  1.0000
  H   H23       1.0  0.31830  0.75740  0.87580  1.0000
  H   H24       1.0  0.68170  0.75740  0.62420  1.0000
  C   C41       1.0  0.27480  0.66820  0.21840  1.0000
  C   C42       1.0  0.72520  0.66820  0.28160  1.0000
  C   C43       1.0  0.77480  0.16820  0.21840  1.0000
  C   C44       1.0  0.22520  0.16820  0.28160  1.0000
  C   C45       1.0  0.72520  0.33180  0.78160  1.0000
  C   C46       1.0  0.27480  0.33180  0.71840  1.0000
  C   C47       1.0  0.22520  0.83180  0.78160  1.0000
  C   C48       1.0  0.77480  0.83180  0.71840  1.0000
  H   H25       1.0  0.23770  0.63120  0.20190  1.0000
  H   H26       1.0  0.76230  0.63120  0.29810  1.0000
  H   H27       1.0  0.73770  0.13120  0.20190  1.0000
  H   H28       1.0  0.26230  0.13120  0.29810  1.0000
  H   H29       1.0  0.76230  0.36880  0.79810  1.0000
  H   H30       1.0  0.23770  0.36880  0.70190  1.0000
  H   H31       1.0  0.26230  0.86880  0.79810  1.0000
  H   H32       1.0  0.73770  0.86880  0.70190  1.0000
  C   C49       1.0  0.25630  0.86160  0.13520  1.0000
  C   C50       1.0  0.74370  0.86160  0.36480  1.0000
  C   C51       1.0  0.75630  0.36160  0.13520  1.0000
  C   C52       1.0  0.24370  0.36160  0.36480  1.0000
  C   C53       1.0  0.74370  0.13840  0.86480  1.0000
  C   C54       1.0  0.25630  0.13840  0.63520  1.0000
  C   C55       1.0  0.24370  0.63840  0.86480  1.0000
  C   C56       1.0  0.75630  0.63840  0.63520  1.0000
