data_image0
_chemical_formula_structural       U4O32C4H4C2H4C6H4C2H4C6H4C2H4C2
_chemical_formula_sum              "U4 O32 C24 H24"
_cell_length_a       10.4486
_cell_length_b       12.3549
_cell_length_c       16.0659
_cell_angle_alpha    105.304
_cell_angle_beta     105.283
_cell_angle_gamma    96.8

_space_group_name_H-M_alt    "P 1"
_space_group_IT_number       1

loop_
  _space_group_symop_operation_xyz
  'x, y, z'

loop_
  _atom_site_type_symbol
  _atom_site_label
  _atom_site_symmetry_multiplicity
  _atom_site_fract_x
  _atom_site_fract_y
  _atom_site_fract_z
  _atom_site_occupancy
  U   U1        1.0  0.33991  0.60208  0.16579  1.0000
  U   U2        1.0  0.66009  0.39792  0.83421  1.0000
  U   U3        1.0  0.00534  0.25416  0.53965  1.0000
  U   U4        1.0  0.99466  0.74584  0.46035  1.0000
  O   O1        1.0  0.22930  0.70070  0.15660  1.0000
  O   O2        1.0  0.77070  0.29930  0.84340  1.0000
  O   O3        1.0  0.44900  0.50330  0.17290  1.0000
  O   O4        1.0  0.55100  0.49670  0.82710  1.0000
  O   O5        1.0  0.89800  0.35510  0.54180  1.0000
  O   O6        1.0  0.10200  0.64490  0.45820  1.0000
  O   O7        1.0  0.11420  0.15330  0.53700  1.0000
  O   O8        1.0  0.88580  0.84670  0.46300  1.0000
  O   O9        1.0  0.30120  0.56910  0.30360  1.0000
  O   O10       1.0  0.69880  0.43090  0.69640  1.0000
  O   O11       1.0  0.15460  0.46930  0.17410  1.0000
  O   O12       1.0  0.84540  0.53070  0.82590  1.0000
  O   O13       1.0  0.18010  0.39550  0.52920  1.0000
  O   O14       1.0  0.81990  0.60450  0.47080  1.0000
  O   O15       1.0  0.04430  0.27990  0.40080  1.0000
  O   O16       1.0  0.95570  0.72010  0.59920  1.0000
  O   O17       1.0  0.20370  0.47580  0.01610  1.0000
  O   O18       1.0  0.79630  0.52420  0.98390  1.0000
  O   O19       1.0  0.37420  0.60020  0.02230  1.0000
  O   O20       1.0  0.62580  0.39980  0.97770  1.0000
  O   O21       1.0  0.99610  0.24180  0.68660  1.0000
  O   O22       1.0  0.00390  0.75820  0.31340  1.0000
  O   O23       1.0  0.14940  0.37580  0.68770  1.0000
  O   O24       1.0  0.85060  0.62420  0.31230  1.0000
  O   O25       1.0  0.52540  0.74970  0.17740  1.0000
  O   O26       1.0  0.47460  0.25030  0.82260  1.0000
  O   O27       1.0  0.49810  0.74790  0.30710  1.0000
  O   O28       1.0  0.50190  0.25210  0.69290  1.0000
  O   O29       1.0  0.84010  0.12270  0.39860  1.0000
  O   O30       1.0  0.15990  0.87730  0.60140  1.0000
  O   O31       1.0  0.81950  0.10840  0.52770  1.0000
  O   O32       1.0  0.18050  0.89160  0.47230  1.0000
  C   C1        1.0  0.19650  0.48910  0.25750  1.0000
  C   C2        1.0  0.80350  0.51090  0.74250  1.0000
  C   C3        1.0  0.12520  0.41860  0.30210  1.0000
  C   C4        1.0  0.87480  0.58140  0.69790  1.0000
  H   H1        1.0  0.04650  0.45080  0.31300  1.0000
  H   H2        1.0  0.95350  0.54920  0.68700  1.0000
  H   H3        1.0  0.09090  0.33910  0.26090  1.0000
  H   H4        1.0  0.90910  0.66090  0.73910  1.0000
  C   C5        1.0  0.21880  0.41720  0.39100  1.0000
  C   C6        1.0  0.78120  0.58280  0.60900  1.0000
  H   H5        1.0  0.28940  0.37400  0.37910  1.0000
  H   H6        1.0  0.71060  0.62600  0.62090  1.0000
  H   H7        1.0  0.26450  0.49680  0.42840  1.0000
  H   H8        1.0  0.73550  0.50320  0.57160  1.0000
  C   C7        1.0  0.14490  0.36390  0.44260  1.0000
  C   C8        1.0  0.85510  0.63610  0.55740  1.0000
  C   C9        1.0  0.27190  0.51780  0.97400  1.0000
  C   C10       1.0  0.72810  0.48220  0.02600  1.0000
  C   C11       1.0  0.23600  0.47710  0.87470  1.0000
  C   C12       1.0  0.76400  0.52290  0.12530  1.0000
  H   H9        1.0  0.31840  0.46320  0.85760  1.0000
  H   H10       1.0  0.68160  0.53680  0.14240  1.0000
  H   H11       1.0  0.20310  0.53770  0.85010  1.0000
  H   H12       1.0  0.79690  0.46230  0.14990  1.0000
  C   C13       1.0  0.12860  0.36840  0.83190  1.0000
  C   C14       1.0  0.87140  0.63160  0.16810  1.0000
  H   H13       1.0  0.16170  0.30750  0.85600  1.0000
  H   H14       1.0  0.83830  0.69250  0.14400  1.0000
  H   H15       1.0  0.04630  0.38200  0.84910  1.0000
  H   H16       1.0  0.95370  0.61800  0.15090  1.0000
  C   C15       1.0  0.09300  0.32810  0.73110  1.0000
  C   C16       1.0  0.90700  0.67190  0.26890  1.0000
  C   C17       1.0  0.55700  0.79340  0.26270  1.0000
  C   C18       1.0  0.44300  0.20660  0.73730  1.0000
  C   C19       1.0  0.66770  0.90140  0.30590  1.0000
  C   C20       1.0  0.33230  0.09860  0.69410  1.0000
  H   H17       1.0  0.75690  0.87880  0.31920  1.0000
  H   H18       1.0  0.24310  0.12120  0.68080  1.0000
  H   H19       1.0  0.66460  0.94440  0.26160  1.0000
  H   H20       1.0  0.33540  0.05560  0.73840  1.0000
  C   C21       1.0  0.65600  0.97980  0.39250  1.0000
  C   C22       1.0  0.34400  0.02020  0.60750  1.0000
  H   H21       1.0  0.57480  0.01330  0.37740  1.0000
  H   H22       1.0  0.42520  0.98670  0.62260  1.0000
  H   H23       1.0  0.64300  0.93370  0.43260  1.0000
  H   H24       1.0  0.35700  0.06630  0.56740  1.0000
  C   C23       1.0  0.77700  0.07460  0.44270  1.0000
  C   C24       1.0  0.22300  0.92540  0.55730  1.0000
