data_image0
_chemical_formula_structural       Zn8V48As32O160N8C8H8C8H8C16H8C8H8
_chemical_formula_sum              "Zn8 V48 As32 O160 N8 C40 H32"
_cell_length_a       16.42
_cell_length_b       18.624
_cell_length_c       26.339
_cell_angle_alpha    90
_cell_angle_beta     100.08
_cell_angle_gamma    90

_space_group_name_H-M_alt    "P 1"
_space_group_IT_number       1

loop_
  _space_group_symop_operation_xyz
  'x, y, z'

loop_
  _atom_site_type_symbol
  _atom_site_label
  _atom_site_symmetry_multiplicity
  _atom_site_fract_x
  _atom_site_fract_y
  _atom_site_fract_z
  _atom_site_occupancy
  Zn  Zn1       1.0  0.50000  0.02509  0.25000  1.0000
  Zn  Zn2       1.0  0.00000  0.52509  0.25000  1.0000
  Zn  Zn3       1.0  0.50000  0.97491  0.75000  1.0000
  Zn  Zn4       1.0  0.00000  0.47491  0.75000  1.0000
  Zn  Zn5       1.0  0.50000  0.42664  0.25000  1.0000
  Zn  Zn6       1.0  0.00000  0.92664  0.25000  1.0000
  Zn  Zn7       1.0  0.50000  0.57336  0.75000  1.0000
  Zn  Zn8       1.0  0.00000  0.07336  0.75000  1.0000
  V   V1        1.0  0.46887  0.23549  0.39607  1.0000
  V   V2        1.0  0.96887  0.73549  0.39607  1.0000
  V   V3        1.0  0.53113  0.23549  0.10393  1.0000
  V   V4        1.0  0.03113  0.73549  0.10393  1.0000
  V   V5        1.0  0.53113  0.76451  0.60393  1.0000
  V   V6        1.0  0.03113  0.26451  0.60393  1.0000
  V   V7        1.0  0.46887  0.76451  0.89607  1.0000
  V   V8        1.0  0.96887  0.26451  0.89607  1.0000
  V   V9        1.0  0.64738  0.22587  0.38363  1.0000
  V   V10       1.0  0.14738  0.72587  0.38363  1.0000
  V   V11       1.0  0.35262  0.22587  0.11637  1.0000
  V   V12       1.0  0.85262  0.72587  0.11637  1.0000
  V   V13       1.0  0.35262  0.77413  0.61637  1.0000
  V   V14       1.0  0.85262  0.27413  0.61637  1.0000
  V   V15       1.0  0.64738  0.77413  0.88363  1.0000
  V   V16       1.0  0.14738  0.27413  0.88363  1.0000
  V   V17       1.0  0.25793  0.21692  0.20395  1.0000
  V   V18       1.0  0.75793  0.71692  0.20395  1.0000
  V   V19       1.0  0.74207  0.21692  0.29605  1.0000
  V   V20       1.0  0.24207  0.71692  0.29605  1.0000
  V   V21       1.0  0.74207  0.78308  0.79605  1.0000
  V   V22       1.0  0.24207  0.28308  0.79605  1.0000
  V   V23       1.0  0.25793  0.78308  0.70395  1.0000
  V   V24       1.0  0.75793  0.28308  0.70395  1.0000
  V   V25       1.0  0.31198  0.22473  0.32019  1.0000
  V   V26       1.0  0.81198  0.72473  0.32019  1.0000
  V   V27       1.0  0.68802  0.22473  0.17981  1.0000
  V   V28       1.0  0.18802  0.72473  0.17981  1.0000
  V   V29       1.0  0.68802  0.77527  0.67981  1.0000
  V   V30       1.0  0.18802  0.27527  0.67981  1.0000
  V   V31       1.0  0.31198  0.77527  0.82019  1.0000
  V   V32       1.0  0.81198  0.27527  0.82019  1.0000
  V   V33       1.0  0.52032  0.08987  0.14344  1.0000
  V   V34       1.0  0.02032  0.58987  0.14344  1.0000
  V   V35       1.0  0.47968  0.08987  0.35656  1.0000
  V   V36       1.0  0.97968  0.58987  0.35656  1.0000
  V   V37       1.0  0.47968  0.91013  0.85656  1.0000
  V   V38       1.0  0.97968  0.41013  0.85656  1.0000
  V   V39       1.0  0.52032  0.91013  0.64344  1.0000
  V   V40       1.0  0.02032  0.41013  0.64344  1.0000
  V   V41       1.0  0.32252  0.35910  0.21699  1.0000
  V   V42       1.0  0.82252  0.85910  0.21699  1.0000
  V   V43       1.0  0.67748  0.35910  0.28301  1.0000
  V   V44       1.0  0.17748  0.85910  0.28301  1.0000
  V   V45       1.0  0.67748  0.64090  0.78301  1.0000
  V   V46       1.0  0.17748  0.14090  0.78301  1.0000
  V   V47       1.0  0.32252  0.64090  0.71699  1.0000
  V   V48       1.0  0.82252  0.14090  0.71699  1.0000
  As  As1       1.0  0.32768  0.05822  0.15662  1.0000
  As  As2       1.0  0.82768  0.55822  0.15662  1.0000
  As  As3       1.0  0.67232  0.05822  0.34338  1.0000
  As  As4       1.0  0.17232  0.55822  0.34338  1.0000
  As  As5       1.0  0.67232  0.94178  0.84338  1.0000
  As  As6       1.0  0.17232  0.44178  0.84338  1.0000
  As  As7       1.0  0.32768  0.94178  0.65662  1.0000
  As  As8       1.0  0.82768  0.44178  0.65662  1.0000
  As  As9       1.0  0.30353  0.05955  0.27696  1.0000
  As  As10      1.0  0.80353  0.55955  0.27696  1.0000
  As  As11      1.0  0.69647  0.05955  0.22304  1.0000
  As  As12      1.0  0.19647  0.55955  0.22304  1.0000
  As  As13      1.0  0.69647  0.94045  0.72304  1.0000
  As  As14      1.0  0.19647  0.44045  0.72304  1.0000
  As  As15      1.0  0.30353  0.94045  0.77696  1.0000
  As  As16      1.0  0.80353  0.44045  0.77696  1.0000
  As  As17      1.0  0.37535  0.39387  0.34106  1.0000
  As  As18      1.0  0.87535  0.89387  0.34106  1.0000
  As  As19      1.0  0.62465  0.39387  0.15894  1.0000
  As  As20      1.0  0.12465  0.89387  0.15894  1.0000
  As  As21      1.0  0.62465  0.60613  0.65894  1.0000
  As  As22      1.0  0.12465  0.10613  0.65894  1.0000
  As  As23      1.0  0.37535  0.60613  0.84106  1.0000
  As  As24      1.0  0.87535  0.10613  0.84106  1.0000
  As  As25      1.0  0.57531  0.39438  0.37870  1.0000
  As  As26      1.0  0.07531  0.89438  0.37870  1.0000
  As  As27      1.0  0.42469  0.39438  0.12130  1.0000
  As  As28      1.0  0.92469  0.89438  0.12130  1.0000
  As  As29      1.0  0.42469  0.60562  0.62130  1.0000
  As  As30      1.0  0.92469  0.10562  0.62130  1.0000
  As  As31      1.0  0.57531  0.60562  0.87870  1.0000
  As  As32      1.0  0.07531  0.10562  0.87870  1.0000
  O   O1        1.0  0.70600  0.22520  0.43940  1.0000
  O   O2        1.0  0.20600  0.72520  0.43940  1.0000
  O   O3        1.0  0.29400  0.22520  0.06060  1.0000
  O   O4        1.0  0.79400  0.72520  0.06060  1.0000
  O   O5        1.0  0.29400  0.77480  0.56060  1.0000
  O   O6        1.0  0.79400  0.27480  0.56060  1.0000
  O   O7        1.0  0.70600  0.77480  0.93940  1.0000
  O   O8        1.0  0.20600  0.27480  0.93940  1.0000
  O   O9        1.0  0.75300  0.41330  0.29760  1.0000
  O   O10       1.0  0.25300  0.91330  0.29760  1.0000
  O   O11       1.0  0.24700  0.41330  0.20240  1.0000
  O   O12       1.0  0.74700  0.91330  0.20240  1.0000
  O   O13       1.0  0.24700  0.58670  0.70240  1.0000
  O   O14       1.0  0.74700  0.08670  0.70240  1.0000
  O   O15       1.0  0.75300  0.58670  0.79760  1.0000
  O   O16       1.0  0.25300  0.08670  0.79760  1.0000
  O   O17       1.0  0.47750  0.03170  0.40260  1.0000
  O   O18       1.0  0.97750  0.53170  0.40260  1.0000
  O   O19       1.0  0.52250  0.03170  0.09740  1.0000
  O   O20       1.0  0.02250  0.53170  0.09740  1.0000
  O   O21       1.0  0.52250  0.96830  0.59740  1.0000
  O   O22       1.0  0.02250  0.46830  0.59740  1.0000
  O   O23       1.0  0.47750  0.96830  0.90260  1.0000
  O   O24       1.0  0.97750  0.46830  0.90260  1.0000
  O   O25       1.0  0.29350  0.15260  0.26400  1.0000
  O   O26       1.0  0.79350  0.65260  0.26400  1.0000
  O   O27       1.0  0.70650  0.15260  0.23600  1.0000
  O   O28       1.0  0.20650  0.65260  0.23600  1.0000
  O   O29       1.0  0.70650  0.84740  0.73600  1.0000
  O   O30       1.0  0.20650  0.34740  0.73600  1.0000
  O   O31       1.0  0.29350  0.84740  0.76400  1.0000
  O   O32       1.0  0.79350  0.34740  0.76400  1.0000
  O   O33       1.0  0.16010  0.21600  0.18630  1.0000
  O   O34       1.0  0.66010  0.71600  0.18630  1.0000
  O   O35       1.0  0.83990  0.21600  0.31370  1.0000
  O   O36       1.0  0.33990  0.71600  0.31370  1.0000
  O   O37       1.0  0.83990  0.78400  0.81370  1.0000
  O   O38       1.0  0.33990  0.28400  0.81370  1.0000
  O   O39       1.0  0.16010  0.78400  0.68630  1.0000
  O   O40       1.0  0.66010  0.28400  0.68630  1.0000
  O   O41       1.0  0.71030  0.02850  0.28830  1.0000
  O   O42       1.0  0.21030  0.52850  0.28830  1.0000
  O   O43       1.0  0.28970  0.02850  0.21170  1.0000
  O   O44       1.0  0.78970  0.52850  0.21170  1.0000
  O   O45       1.0  0.28970  0.97150  0.71170  1.0000
  O   O46       1.0  0.78970  0.47150  0.71170  1.0000
  O   O47       1.0  0.71030  0.97150  0.78830  1.0000
  O   O48       1.0  0.21030  0.47150  0.78830  1.0000
  O   O49       1.0  0.41180  0.05260  0.29200  1.0000
  O   O50       1.0  0.91180  0.55260  0.29200  1.0000
  O   O51       1.0  0.58820  0.05260  0.20800  1.0000
  O   O52       1.0  0.08820  0.55260  0.20800  1.0000
  O   O53       1.0  0.58820  0.94740  0.70800  1.0000
  O   O54       1.0  0.08820  0.44740  0.70800  1.0000
  O   O55       1.0  0.41180  0.94740  0.79200  1.0000
  O   O56       1.0  0.91180  0.44740  0.79200  1.0000
  O   O57       1.0  0.23430  0.22150  0.34730  1.0000
  O   O58       1.0  0.73430  0.72150  0.34730  1.0000
  O   O59       1.0  0.76570  0.22150  0.15270  1.0000
  O   O60       1.0  0.26570  0.72150  0.15270  1.0000
  O   O61       1.0  0.76570  0.77850  0.65270  1.0000
  O   O62       1.0  0.26570  0.27850  0.65270  1.0000
  O   O63       1.0  0.23430  0.77850  0.84730  1.0000
  O   O64       1.0  0.73430  0.27850  0.84730  1.0000
  O   O65       1.0  0.55300  0.16650  0.38660  1.0000
  O   O66       1.0  0.05300  0.66650  0.38660  1.0000
  O   O67       1.0  0.44700  0.16650  0.11340  1.0000
  O   O68       1.0  0.94700  0.66650  0.11340  1.0000
  O   O69       1.0  0.44700  0.83350  0.61340  1.0000
  O   O70       1.0  0.94700  0.33350  0.61340  1.0000
  O   O71       1.0  0.55300  0.83350  0.88660  1.0000
  O   O72       1.0  0.05300  0.33350  0.88660  1.0000
  O   O73       1.0  0.28650  0.28510  0.25950  1.0000
  O   O74       1.0  0.78650  0.78510  0.25950  1.0000
  O   O75       1.0  0.71350  0.28510  0.24050  1.0000
  O   O76       1.0  0.21350  0.78510  0.24050  1.0000
  O   O77       1.0  0.71350  0.71490  0.74050  1.0000
  O   O78       1.0  0.21350  0.21490  0.74050  1.0000
  O   O79       1.0  0.28650  0.71490  0.75950  1.0000
  O   O80       1.0  0.78650  0.21490  0.75950  1.0000
  O   O81       1.0  0.40030  0.39510  0.27910  1.0000
  O   O82       1.0  0.90030  0.89510  0.27910  1.0000
  O   O83       1.0  0.59970  0.39510  0.22090  1.0000
  O   O84       1.0  0.09970  0.89510  0.22090  1.0000
  O   O85       1.0  0.59970  0.60490  0.72090  1.0000
  O   O86       1.0  0.09970  0.10490  0.72090  1.0000
  O   O87       1.0  0.40030  0.60490  0.77910  1.0000
  O   O88       1.0  0.90030  0.10490  0.77910  1.0000
  O   O89       1.0  0.58130  0.39550  0.31310  1.0000
  O   O90       1.0  0.08130  0.89550  0.31310  1.0000
  O   O91       1.0  0.41870  0.39550  0.18690  1.0000
  O   O92       1.0  0.91870  0.89550  0.18690  1.0000
  O   O93       1.0  0.41870  0.60450  0.68690  1.0000
  O   O94       1.0  0.91870  0.10450  0.68690  1.0000
  O   O95       1.0  0.58130  0.60450  0.81310  1.0000
  O   O96       1.0  0.08130  0.10450  0.81310  1.0000
  O   O97       1.0  0.56200  0.30050  0.38820  1.0000
  O   O98       1.0  0.06200  0.80050  0.38820  1.0000
  O   O99       1.0  0.43800  0.30050  0.11180  1.0000
  O   O100      1.0  0.93800  0.80050  0.11180  1.0000
  O   O101      1.0  0.43800  0.69950  0.61180  1.0000
  O   O102      1.0  0.93800  0.19950  0.61180  1.0000
  O   O103      1.0  0.56200  0.69950  0.88820  1.0000
  O   O104      1.0  0.06200  0.19950  0.88820  1.0000
  O   O105      1.0  0.38790  0.29890  0.35410  1.0000
  O   O106      1.0  0.88790  0.79890  0.35410  1.0000
  O   O107      1.0  0.61210  0.29890  0.14590  1.0000
  O   O108      1.0  0.11210  0.79890  0.14590  1.0000
  O   O109      1.0  0.61210  0.70110  0.64590  1.0000
  O   O110      1.0  0.11210  0.20110  0.64590  1.0000
  O   O111      1.0  0.38790  0.70110  0.85410  1.0000
  O   O112      1.0  0.88790  0.20110  0.85410  1.0000
  O   O113      1.0  0.69440  0.28650  0.33610  1.0000
  O   O114      1.0  0.19440  0.78650  0.33610  1.0000
  O   O115      1.0  0.30560  0.28650  0.16390  1.0000
  O   O116      1.0  0.80560  0.78650  0.16390  1.0000
  O   O117      1.0  0.30560  0.71350  0.66390  1.0000
  O   O118      1.0  0.80560  0.21350  0.66390  1.0000
  O   O119      1.0  0.69440  0.71350  0.83610  1.0000
  O   O120      1.0  0.19440  0.21350  0.83610  1.0000
  O   O121      1.0  0.56620  0.05830  0.31880  1.0000
  O   O122      1.0  0.06620  0.55830  0.31880  1.0000
  O   O123      1.0  0.43380  0.05830  0.18120  1.0000
  O   O124      1.0  0.93380  0.55830  0.18120  1.0000
  O   O125      1.0  0.43380  0.94170  0.68120  1.0000
  O   O126      1.0  0.93380  0.44170  0.68120  1.0000
  O   O127      1.0  0.56620  0.94170  0.81880  1.0000
  O   O128      1.0  0.06620  0.44170  0.81880  1.0000
  O   O129      1.0  0.39760  0.16540  0.35780  1.0000
  O   O130      1.0  0.89760  0.66540  0.35780  1.0000
  O   O131      1.0  0.60240  0.16540  0.14220  1.0000
  O   O132      1.0  0.10240  0.66540  0.14220  1.0000
  O   O133      1.0  0.60240  0.83460  0.64220  1.0000
  O   O134      1.0  0.10240  0.33460  0.64220  1.0000
  O   O135      1.0  0.39760  0.83460  0.85780  1.0000
  O   O136      1.0  0.89760  0.33460  0.85780  1.0000
  O   O137      1.0  0.69040  0.15210  0.34000  1.0000
  O   O138      1.0  0.19040  0.65210  0.34000  1.0000
  O   O139      1.0  0.30960  0.15210  0.16000  1.0000
  O   O140      1.0  0.80960  0.65210  0.16000  1.0000
  O   O141      1.0  0.30960  0.84790  0.66000  1.0000
  O   O142      1.0  0.80960  0.34790  0.66000  1.0000
  O   O143      1.0  0.69040  0.84790  0.84000  1.0000
  O   O144      1.0  0.19040  0.34790  0.84000  1.0000
  O   O145      1.0  0.45780  0.23640  0.45530  1.0000
  O   O146      1.0  0.95780  0.73640  0.45530  1.0000
  O   O147      1.0  0.54220  0.23640  0.04470  1.0000
  O   O148      1.0  0.04220  0.73640  0.04470  1.0000
  O   O149      1.0  0.54220  0.76360  0.54470  1.0000
  O   O150      1.0  0.04220  0.26360  0.54470  1.0000
  O   O151      1.0  0.45780  0.76360  0.95530  1.0000
  O   O152      1.0  0.95780  0.26360  0.95530  1.0000
  O   O153      1.0  0.47000  0.42230  0.37490  1.0000
  O   O154      1.0  0.97000  0.92230  0.37490  1.0000
  O   O155      1.0  0.53000  0.42230  0.12510  1.0000
  O   O156      1.0  0.03000  0.92230  0.12510  1.0000
  O   O157      1.0  0.53000  0.57770  0.62510  1.0000
  O   O158      1.0  0.03000  0.07770  0.62510  1.0000
  O   O159      1.0  0.47000  0.57770  0.87490  1.0000
  O   O160      1.0  0.97000  0.07770  0.87490  1.0000
  N   N1        1.0  0.50000  0.91780  0.25000  1.0000
  N   N2        1.0  0.00000  0.41780  0.25000  1.0000
  N   N3        1.0  0.50000  0.08220  0.75000  1.0000
  N   N4        1.0  0.00000  0.58220  0.75000  1.0000
  N   N5        1.0  0.50000  0.53130  0.25000  1.0000
  N   N6        1.0  0.00000  0.03130  0.25000  1.0000
  N   N7        1.0  0.50000  0.46870  0.75000  1.0000
  N   N8        1.0  0.00000  0.96870  0.75000  1.0000
  C   C1        1.0  0.56490  0.57120  0.27440  1.0000
  C   C2        1.0  0.06490  0.07120  0.27440  1.0000
  C   C3        1.0  0.43510  0.57120  0.22560  1.0000
  C   C4        1.0  0.93510  0.07120  0.22560  1.0000
  C   C5        1.0  0.43510  0.42880  0.72560  1.0000
  C   C6        1.0  0.93510  0.92880  0.72560  1.0000
  C   C7        1.0  0.56490  0.42880  0.77440  1.0000
  C   C8        1.0  0.06490  0.92880  0.77440  1.0000
  H   H1        1.0  0.61060  0.54640  0.29170  1.0000
  H   H2        1.0  0.11060  0.04640  0.29170  1.0000
  H   H3        1.0  0.38940  0.54640  0.20830  1.0000
  H   H4        1.0  0.88940  0.04640  0.20830  1.0000
  H   H5        1.0  0.38940  0.45360  0.70830  1.0000
  H   H6        1.0  0.88940  0.95360  0.70830  1.0000
  H   H7        1.0  0.61060  0.45360  0.79170  1.0000
  H   H8        1.0  0.11060  0.95360  0.79170  1.0000
  C   C9        1.0  0.56850  0.64680  0.27550  1.0000
  C   C10       1.0  0.06850  0.14680  0.27550  1.0000
  C   C11       1.0  0.43150  0.64680  0.22450  1.0000
  C   C12       1.0  0.93150  0.14680  0.22450  1.0000
  C   C13       1.0  0.43150  0.35320  0.72450  1.0000
  C   C14       1.0  0.93150  0.85320  0.72450  1.0000
  C   C15       1.0  0.56850  0.35320  0.77550  1.0000
  C   C16       1.0  0.06850  0.85320  0.77550  1.0000
  H   H9        1.0  0.61500  0.67070  0.29270  1.0000
  H   H10       1.0  0.11500  0.17070  0.29270  1.0000
  H   H11       1.0  0.38500  0.67070  0.20730  1.0000
  H   H12       1.0  0.88500  0.17070  0.20730  1.0000
  H   H13       1.0  0.38500  0.32930  0.70730  1.0000
  H   H14       1.0  0.88500  0.82930  0.70730  1.0000
  H   H15       1.0  0.61500  0.32930  0.79270  1.0000
  H   H16       1.0  0.11500  0.82930  0.79270  1.0000
  C   C17       1.0  0.50000  0.68450  0.25000  1.0000
  C   C18       1.0  0.00000  0.18450  0.25000  1.0000
  C   C19       1.0  0.50000  0.31550  0.75000  1.0000
  C   C20       1.0  0.00000  0.81550  0.75000  1.0000
  C   C21       1.0  0.50000  0.76520  0.25000  1.0000
  C   C22       1.0  0.00000  0.26520  0.25000  1.0000
  C   C23       1.0  0.50000  0.23480  0.75000  1.0000
  C   C24       1.0  0.00000  0.73480  0.75000  1.0000
  C   C25       1.0  0.57390  0.80560  0.25800  1.0000
  C   C26       1.0  0.07390  0.30560  0.25800  1.0000
  C   C27       1.0  0.42610  0.80560  0.24200  1.0000
  C   C28       1.0  0.92610  0.30560  0.24200  1.0000
  C   C29       1.0  0.42610  0.19440  0.74200  1.0000
  C   C30       1.0  0.92610  0.69440  0.74200  1.0000
  C   C31       1.0  0.57390  0.19440  0.75800  1.0000
  C   C32       1.0  0.07390  0.69440  0.75800  1.0000
  H   H17       1.0  0.62500  0.78260  0.26480  1.0000
  H   H18       1.0  0.12500  0.28260  0.26480  1.0000
  H   H19       1.0  0.37500  0.78260  0.23520  1.0000
  H   H20       1.0  0.87500  0.28260  0.23520  1.0000
  H   H21       1.0  0.37500  0.21740  0.73520  1.0000
  H   H22       1.0  0.87500  0.71740  0.73520  1.0000
  H   H23       1.0  0.62500  0.21740  0.76480  1.0000
  H   H24       1.0  0.12500  0.71740  0.76480  1.0000
  C   C33       1.0  0.56970  0.87740  0.25590  1.0000
  C   C34       1.0  0.06970  0.37740  0.25590  1.0000
  C   C35       1.0  0.43030  0.87740  0.24410  1.0000
  C   C36       1.0  0.93030  0.37740  0.24410  1.0000
  C   C37       1.0  0.43030  0.12260  0.74410  1.0000
  C   C38       1.0  0.93030  0.62260  0.74410  1.0000
  C   C39       1.0  0.56970  0.12260  0.75590  1.0000
  C   C40       1.0  0.06970  0.62260  0.75590  1.0000
  H   H25       1.0  0.61960  0.90200  0.25870  1.0000
  H   H26       1.0  0.11960  0.40200  0.25870  1.0000
  H   H27       1.0  0.38040  0.90200  0.24130  1.0000
  H   H28       1.0  0.88040  0.40200  0.24130  1.0000
  H   H29       1.0  0.38040  0.09800  0.74130  1.0000
  H   H30       1.0  0.88040  0.59800  0.74130  1.0000
  H   H31       1.0  0.61960  0.09800  0.75870  1.0000
  H   H32       1.0  0.11960  0.59800  0.75870  1.0000
