data_image0
_chemical_formula_structural       U4O28C8H4C8H4C12N4
_chemical_formula_sum              "U4 O28 C28 H8 N4"
_cell_length_a       9.2754
_cell_length_b       12.4668
_cell_length_c       12.7002
_cell_angle_alpha    90
_cell_angle_beta     91.79
_cell_angle_gamma    90

_space_group_name_H-M_alt    "P 1"
_space_group_IT_number       1

loop_
  _space_group_symop_operation_xyz
  'x, y, z'

loop_
  _atom_site_type_symbol
  _atom_site_label
  _atom_site_symmetry_multiplicity
  _atom_site_fract_x
  _atom_site_fract_y
  _atom_site_fract_z
  _atom_site_occupancy
  U   U1        1.0  0.21611  0.90434  0.77548  1.0000
  U   U2        1.0  0.28389  0.40434  0.72452  1.0000
  U   U3        1.0  0.78389  0.09566  0.22452  1.0000
  U   U4        1.0  0.71611  0.59566  0.27548  1.0000
  O   O1        1.0  0.36990  0.96520  0.72350  1.0000
  O   O2        1.0  0.13010  0.46520  0.77650  1.0000
  O   O3        1.0  0.63010  0.03480  0.27650  1.0000
  O   O4        1.0  0.86990  0.53480  0.22350  1.0000
  O   O5        1.0  0.06430  0.84220  0.82970  1.0000
  O   O6        1.0  0.43570  0.34220  0.67030  1.0000
  O   O7        1.0  0.93570  0.15780  0.17030  1.0000
  O   O8        1.0  0.56430  0.65780  0.32970  1.0000
  O   O9        1.0  0.19790  0.22970  0.78760  1.0000
  O   O10       1.0  0.30210  0.72970  0.71240  1.0000
  O   O11       1.0  0.80210  0.77030  0.21240  1.0000
  O   O12       1.0  0.69790  0.27030  0.28760  1.0000
  O   O13       1.0  0.22970  0.48490  0.55690  1.0000
  O   O14       1.0  0.27030  0.98490  0.94310  1.0000
  O   O15       1.0  0.77030  0.51510  0.44310  1.0000
  O   O16       1.0  0.72970  0.01510  0.05690  1.0000
  O   O17       1.0  0.12930  0.48720  0.39500  1.0000
  O   O18       1.0  0.37070  0.98720  0.10500  1.0000
  O   O19       1.0  0.87070  0.51280  0.60500  1.0000
  O   O20       1.0  0.62930  0.01280  0.89500  1.0000
  O   O21       1.0  0.09580  0.07090  0.76190  1.0000
  O   O22       1.0  0.40420  0.57090  0.73810  1.0000
  O   O23       1.0  0.90420  0.92910  0.23810  1.0000
  O   O24       1.0  0.59580  0.42910  0.26190  1.0000
  O   O25       1.0  0.88320  0.11520  0.39130  1.0000
  O   O26       1.0  0.61680  0.61520  0.10870  1.0000
  O   O27       1.0  0.11680  0.88480  0.60870  1.0000
  O   O28       1.0  0.38320  0.38480  0.89130  1.0000
  C   C1        1.0  0.08890  0.19630  0.62010  1.0000
  C   C2        1.0  0.41110  0.69630  0.87990  1.0000
  C   C3        1.0  0.91110  0.80370  0.37990  1.0000
  C   C4        1.0  0.58890  0.30370  0.12010  1.0000
  C   C5        1.0  0.00950  0.13300  0.55390  1.0000
  C   C6        1.0  0.49050  0.63300  0.94610  1.0000
  C   C7        1.0  0.99050  0.86700  0.44610  1.0000
  C   C8        1.0  0.50950  0.36700  0.05390  1.0000
  H   H1        1.0  0.98420  0.06410  0.57450  1.0000
  H   H2        1.0  0.51580  0.56410  0.92550  1.0000
  H   H3        1.0  0.01580  0.93590  0.42550  1.0000
  H   H4        1.0  0.48420  0.43590  0.07450  1.0000
  C   C9        1.0  0.96470  0.17230  0.45230  1.0000
  C   C10       1.0  0.53530  0.67230  0.04770  1.0000
  C   C11       1.0  0.03530  0.82770  0.54770  1.0000
  C   C12       1.0  0.46470  0.32770  0.95230  1.0000
  C   C13       1.0  0.01340  0.27640  0.42920  1.0000
  C   C14       1.0  0.48660  0.77640  0.07080  1.0000
  C   C15       1.0  0.98660  0.72360  0.57080  1.0000
  C   C16       1.0  0.51340  0.22360  0.92920  1.0000
  H   H5        1.0  0.98840  0.30780  0.36480  1.0000
  H   H6        1.0  0.51160  0.80780  0.13520  1.0000
  H   H7        1.0  0.01160  0.69220  0.63520  1.0000
  H   H8        1.0  0.48840  0.19220  0.86480  1.0000
  C   C17       1.0  0.09750  0.33160  0.50150  1.0000
  C   C18       1.0  0.40250  0.83160  0.99850  1.0000
  C   C19       1.0  0.90250  0.66840  0.49850  1.0000
  C   C20       1.0  0.59750  0.16840  0.00150  1.0000
  C   C21       1.0  0.15540  0.44470  0.48080  1.0000
  C   C22       1.0  0.34460  0.94470  0.01920  1.0000
  C   C23       1.0  0.84460  0.55530  0.51920  1.0000
  C   C24       1.0  0.65540  0.05530  0.98080  1.0000
  C   C25       1.0  0.13290  0.16130  0.73200  1.0000
  C   C26       1.0  0.36710  0.66130  0.76800  1.0000
  C   C27       1.0  0.86710  0.83870  0.26800  1.0000
  C   C28       1.0  0.63290  0.33870  0.23200  1.0000
  N   N1        1.0  0.13430  0.29600  0.59650  1.0000
  N   N2        1.0  0.36570  0.79600  0.90350  1.0000
  N   N3        1.0  0.86570  0.70400  0.40350  1.0000
  N   N4        1.0  0.63430  0.20400  0.09650  1.0000
