data_image0
_chemical_formula_structural       Cu4O24C4H4C4H4C4H4
_chemical_formula_sum              "Cu4 O24 C12 H12"
_cell_length_a       7.1284
_cell_length_b       13.0499
_cell_length_c       8.141
_cell_angle_alpha    90
_cell_angle_beta     90
_cell_angle_gamma    90

_space_group_name_H-M_alt    "P 1"
_space_group_IT_number       1

loop_
  _space_group_symop_operation_xyz
  'x, y, z'

loop_
  _atom_site_type_symbol
  _atom_site_label
  _atom_site_symmetry_multiplicity
  _atom_site_fract_x
  _atom_site_fract_y
  _atom_site_fract_z
  _atom_site_occupancy
  Cu  Cu1       1.0  0.24475  0.16575  0.76256  1.0000
  Cu  Cu2       1.0  0.25525  0.83425  0.26256  1.0000
  Cu  Cu3       1.0  0.75525  0.66575  0.73744  1.0000
  Cu  Cu4       1.0  0.74475  0.33425  0.23744  1.0000
  O   O1        1.0  0.36350  0.30336  0.59871  1.0000
  O   O2        1.0  0.13650  0.69664  0.09871  1.0000
  O   O3        1.0  0.63650  0.80336  0.90129  1.0000
  O   O4        1.0  0.86350  0.19664  0.40129  1.0000
  O   O5        1.0  0.52185  0.35022  0.37690  1.0000
  O   O6        1.0  0.97815  0.64978  0.87690  1.0000
  O   O7        1.0  0.47815  0.85022  0.12310  1.0000
  O   O8        1.0  0.02185  0.14978  0.62310  1.0000
  O   O9        1.0  0.14020  0.28310  0.88724  1.0000
  O   O10       1.0  0.35980  0.71690  0.38724  1.0000
  O   O11       1.0  0.85980  0.78310  0.61276  1.0000
  O   O12       1.0  0.64020  0.21690  0.11276  1.0000
  O   O13       1.0  0.96000  0.34513  0.08328  1.0000
  O   O14       1.0  0.54000  0.65487  0.58328  1.0000
  O   O15       1.0  0.04000  0.84513  0.41672  1.0000
  O   O16       1.0  0.46000  0.15487  0.91672  1.0000
  O   O17       1.0  0.38910  0.06515  0.63514  1.0000
  O   O18       1.0  0.11090  0.93485  0.13514  1.0000
  O   O19       1.0  0.61090  0.56515  0.86486  1.0000
  O   O20       1.0  0.88910  0.43485  0.36486  1.0000
  O   O21       1.0  0.42590  0.95538  0.43010  1.0000
  O   O22       1.0  0.07410  0.04462  0.93010  1.0000
  O   O23       1.0  0.57410  0.45538  0.06990  1.0000
  O   O24       1.0  0.92590  0.54462  0.56990  1.0000
  C   C1        1.0  0.47430  0.28734  0.48530  1.0000
  C   C2        1.0  0.02570  0.71266  0.98530  1.0000
  C   C3        1.0  0.52570  0.78734  0.01470  1.0000
  C   C4        1.0  0.97430  0.21266  0.51470  1.0000
  H   H1        1.0  0.52830  0.22170  0.47980  1.0000
  H   H2        1.0  0.97170  0.77830  0.97980  1.0000
  H   H3        1.0  0.47170  0.72170  0.02020  1.0000
  H   H4        1.0  0.02830  0.27830  0.52020  1.0000
  C   C5        1.0  0.01580  0.27427  0.99380  1.0000
  C   C6        1.0  0.48420  0.72573  0.49380  1.0000
  C   C7        1.0  0.98420  0.77427  0.50620  1.0000
  C   C8        1.0  0.51580  0.22573  0.00620  1.0000
  H   H5        1.0  0.96030  0.20950  0.00740  1.0000
  H   H6        1.0  0.53970  0.79050  0.50740  1.0000
  H   H7        1.0  0.03970  0.70950  0.49260  1.0000
  H   H8        1.0  0.46030  0.29050  0.99260  1.0000
  C   C9        1.0  0.32870  0.01071  0.51890  1.0000
  C   C10       1.0  0.17130  0.98929  0.01890  1.0000
  C   C11       1.0  0.67130  0.51071  0.98110  1.0000
  C   C12       1.0  0.82870  0.48929  0.48110  1.0000
  H   H9        1.0  0.19910  0.01230  0.49810  1.0000
  H   H10       1.0  0.30090  0.98770  0.99810  1.0000
  H   H11       1.0  0.80090  0.51230  0.00190  1.0000
  H   H12       1.0  0.69910  0.48770  0.50190  1.0000
