data_image0
_chemical_formula_structural       Cu4O24C4H4C4H4C4H4
_chemical_formula_sum              "Cu4 O24 C12 H12"
_cell_length_a       7.1976
_cell_length_b       12.931
_cell_length_c       8.1364
_cell_angle_alpha    90
_cell_angle_beta     90
_cell_angle_gamma    90

_space_group_name_H-M_alt    "P 1"
_space_group_IT_number       1

loop_
  _space_group_symop_operation_xyz
  'x, y, z'

loop_
  _atom_site_type_symbol
  _atom_site_label
  _atom_site_symmetry_multiplicity
  _atom_site_fract_x
  _atom_site_fract_y
  _atom_site_fract_z
  _atom_site_occupancy
  Cu  Cu1       1.0  0.24448  0.16789  0.76199  1.0000
  Cu  Cu2       1.0  0.25552  0.83212  0.26199  1.0000
  Cu  Cu3       1.0  0.75552  0.66789  0.73801  1.0000
  Cu  Cu4       1.0  0.74448  0.33211  0.23801  1.0000
  O   O1        1.0  0.36180  0.30796  0.59770  1.0000
  O   O2        1.0  0.13820  0.69204  0.09770  1.0000
  O   O3        1.0  0.63820  0.80796  0.90230  1.0000
  O   O4        1.0  0.86180  0.19204  0.40230  1.0000
  O   O5        1.0  0.52130  0.34764  0.37460  1.0000
  O   O6        1.0  0.97870  0.65236  0.87460  1.0000
  O   O7        1.0  0.47870  0.84764  0.12540  1.0000
  O   O8        1.0  0.02130  0.15236  0.62540  1.0000
  O   O9        1.0  0.14220  0.28512  0.89001  1.0000
  O   O10       1.0  0.35780  0.71488  0.39001  1.0000
  O   O11       1.0  0.85780  0.78512  0.60999  1.0000
  O   O12       1.0  0.64220  0.21488  0.10999  1.0000
  O   O13       1.0  0.96100  0.34400  0.08630  1.0000
  O   O14       1.0  0.53900  0.65600  0.58630  1.0000
  O   O15       1.0  0.03900  0.84400  0.41370  1.0000
  O   O16       1.0  0.46100  0.15600  0.91370  1.0000
  O   O17       1.0  0.38570  0.06717  0.63240  1.0000
  O   O18       1.0  0.11430  0.93283  0.13240  1.0000
  O   O19       1.0  0.61430  0.56717  0.86760  1.0000
  O   O20       1.0  0.88570  0.43283  0.36760  1.0000
  O   O21       1.0  0.42340  0.95526  0.43060  1.0000
  O   O22       1.0  0.07660  0.04474  0.93060  1.0000
  O   O23       1.0  0.57660  0.45526  0.06940  1.0000
  O   O24       1.0  0.92340  0.54474  0.56940  1.0000
  C   C1        1.0  0.47780  0.29080  0.49190  1.0000
  C   C2        1.0  0.02220  0.70920  0.99190  1.0000
  C   C3        1.0  0.52220  0.79080  0.00810  1.0000
  C   C4        1.0  0.97780  0.20920  0.50810  1.0000
  H   H1        1.0  0.54080  0.22820  0.49980  1.0000
  H   H2        1.0  0.95920  0.77180  0.99980  1.0000
  H   H3        1.0  0.45920  0.72820  0.00020  1.0000
  H   H4        1.0  0.04080  0.27180  0.50020  1.0000
  C   C5        1.0  0.01390  0.27595  0.99100  1.0000
  C   C6        1.0  0.48610  0.72405  0.49100  1.0000
  C   C7        1.0  0.98610  0.77595  0.50900  1.0000
  C   C8        1.0  0.51390  0.22405  0.00900  1.0000
  H   H5        1.0  0.95270  0.21260  0.99510  1.0000
  H   H6        1.0  0.54730  0.78740  0.49510  1.0000
  H   H7        1.0  0.04730  0.71260  0.50490  1.0000
  H   H8        1.0  0.45270  0.28740  0.00490  1.0000
  C   C9        1.0  0.33000  0.01179  0.51840  1.0000
  C   C10       1.0  0.17000  0.98821  0.01840  1.0000
  C   C11       1.0  0.67000  0.51179  0.98160  1.0000
  C   C12       1.0  0.83000  0.48821  0.48160  1.0000
  H   H9        1.0  0.20310  0.01340  0.49710  1.0000
  H   H10       1.0  0.29690  0.98660  0.99710  1.0000
  H   H11       1.0  0.79690  0.51340  0.00290  1.0000
  H   H12       1.0  0.70310  0.48660  0.50290  1.0000
