data_image0
_chemical_formula_structural       Cu4O24C4H4C4H4C4H4
_chemical_formula_sum              "Cu4 O24 C12 H12"
_cell_length_a       7.0303
_cell_length_b       13.3488
_cell_length_c       8.077
_cell_angle_alpha    90
_cell_angle_beta     90
_cell_angle_gamma    90

_space_group_name_H-M_alt    "P 1"
_space_group_IT_number       1

loop_
  _space_group_symop_operation_xyz
  'x, y, z'

loop_
  _atom_site_type_symbol
  _atom_site_label
  _atom_site_symmetry_multiplicity
  _atom_site_fract_x
  _atom_site_fract_y
  _atom_site_fract_z
  _atom_site_occupancy
  Cu  Cu1       1.0  0.24756  0.16229  0.76296  1.0000
  Cu  Cu2       1.0  0.25244  0.83771  0.26296  1.0000
  Cu  Cu3       1.0  0.75244  0.66229  0.73704  1.0000
  Cu  Cu4       1.0  0.74756  0.33771  0.23704  1.0000
  O   O1        1.0  0.37049  0.29675  0.60247  1.0000
  O   O2        1.0  0.12951  0.70325  0.10247  1.0000
  O   O3        1.0  0.62951  0.79675  0.89753  1.0000
  O   O4        1.0  0.87049  0.20325  0.39753  1.0000
  O   O5        1.0  0.52758  0.35342  0.38370  1.0000
  O   O6        1.0  0.97242  0.64658  0.88370  1.0000
  O   O7        1.0  0.47242  0.85342  0.11630  1.0000
  O   O8        1.0  0.02758  0.14658  0.61630  1.0000
  O   O9        1.0  0.13776  0.27852  0.88333  1.0000
  O   O10       1.0  0.36224  0.72148  0.38333  1.0000
  O   O11       1.0  0.86224  0.77852  0.61667  1.0000
  O   O12       1.0  0.63776  0.22148  0.11667  1.0000
  O   O13       1.0  0.96041  0.34688  0.07775  1.0000
  O   O14       1.0  0.53959  0.65312  0.57775  1.0000
  O   O15       1.0  0.03959  0.84688  0.42225  1.0000
  O   O16       1.0  0.46041  0.15312  0.92225  1.0000
  O   O17       1.0  0.39833  0.06445  0.63437  1.0000
  O   O18       1.0  0.10167  0.93555  0.13437  1.0000
  O   O19       1.0  0.60167  0.56445  0.86563  1.0000
  O   O20       1.0  0.89833  0.43555  0.36563  1.0000
  O   O21       1.0  0.42727  0.95361  0.42962  1.0000
  O   O22       1.0  0.07273  0.04639  0.92962  1.0000
  O   O23       1.0  0.57273  0.45361  0.07038  1.0000
  O   O24       1.0  0.92727  0.54639  0.57038  1.0000
  C   C1        1.0  0.47220  0.28453  0.47920  1.0000
  C   C2        1.0  0.02780  0.71547  0.97920  1.0000
  C   C3        1.0  0.52780  0.78453  0.02080  1.0000
  C   C4        1.0  0.97220  0.21547  0.52080  1.0000
  H   H1        1.0  0.51170  0.21810  0.45460  1.0000
  H   H2        1.0  0.98830  0.78190  0.95460  1.0000
  H   H3        1.0  0.48830  0.71810  0.04540  1.0000
  H   H4        1.0  0.01170  0.28190  0.54540  1.0000
  C   C5        1.0  0.02090  0.27251  0.99900  1.0000
  C   C6        1.0  0.47910  0.72749  0.49900  1.0000
  C   C7        1.0  0.97910  0.77251  0.50100  1.0000
  C   C8        1.0  0.52090  0.22749  0.00100  1.0000
  H   H5        1.0  0.97530  0.20810  0.02910  1.0000
  H   H6        1.0  0.52470  0.79190  0.52910  1.0000
  H   H7        1.0  0.02470  0.70810  0.47090  1.0000
  H   H8        1.0  0.47530  0.29190  0.97090  1.0000
  C   C9        1.0  0.33110  0.00789  0.52280  1.0000
  C   C10       1.0  0.16890  0.99211  0.02280  1.0000
  C   C11       1.0  0.66890  0.50789  0.97720  1.0000
  C   C12       1.0  0.83110  0.49211  0.47720  1.0000
  H   H9        1.0  0.19680  0.00680  0.50930  1.0000
  H   H10       1.0  0.30320  0.99320  0.00930  1.0000
  H   H11       1.0  0.80320  0.50680  0.99070  1.0000
  H   H12       1.0  0.69680  0.49320  0.49070  1.0000
