data_image0
_chemical_formula_structural       Cu4O24C4H4C4H4C4H4
_chemical_formula_sum              "Cu4 O24 C12 H12"
_cell_length_a       7.171
_cell_length_b       12.964
_cell_length_c       8.1427
_cell_angle_alpha    90
_cell_angle_beta     90
_cell_angle_gamma    90

_space_group_name_H-M_alt    "P 1"
_space_group_IT_number       1

loop_
  _space_group_symop_operation_xyz
  'x, y, z'

loop_
  _atom_site_type_symbol
  _atom_site_label
  _atom_site_symmetry_multiplicity
  _atom_site_fract_x
  _atom_site_fract_y
  _atom_site_fract_z
  _atom_site_occupancy
  Cu  Cu1       1.0  0.24450  0.16711  0.76223  1.0000
  Cu  Cu2       1.0  0.25550  0.83289  0.26223  1.0000
  Cu  Cu3       1.0  0.75550  0.66711  0.73777  1.0000
  Cu  Cu4       1.0  0.74450  0.33289  0.23777  1.0000
  O   O1        1.0  0.36210  0.30654  0.59856  1.0000
  O   O2        1.0  0.13790  0.69346  0.09856  1.0000
  O   O3        1.0  0.63790  0.80654  0.90144  1.0000
  O   O4        1.0  0.86210  0.19346  0.40144  1.0000
  O   O5        1.0  0.52118  0.34843  0.37514  1.0000
  O   O6        1.0  0.97882  0.65157  0.87514  1.0000
  O   O7        1.0  0.47882  0.84843  0.12486  1.0000
  O   O8        1.0  0.02118  0.15157  0.62486  1.0000
  O   O9        1.0  0.14140  0.28466  0.88880  1.0000
  O   O10       1.0  0.35860  0.71534  0.38880  1.0000
  O   O11       1.0  0.85860  0.78466  0.61120  1.0000
  O   O12       1.0  0.64140  0.21534  0.11120  1.0000
  O   O13       1.0  0.96040  0.34460  0.08597  1.0000
  O   O14       1.0  0.53960  0.65540  0.58597  1.0000
  O   O15       1.0  0.03960  0.84460  0.41403  1.0000
  O   O16       1.0  0.46040  0.15540  0.91403  1.0000
  O   O17       1.0  0.38700  0.06627  0.63347  1.0000
  O   O18       1.0  0.11300  0.93373  0.13347  1.0000
  O   O19       1.0  0.61300  0.56627  0.86653  1.0000
  O   O20       1.0  0.88700  0.43373  0.36653  1.0000
  O   O21       1.0  0.42440  0.95519  0.43012  1.0000
  O   O22       1.0  0.07560  0.04481  0.93012  1.0000
  O   O23       1.0  0.57560  0.45519  0.06988  1.0000
  O   O24       1.0  0.92440  0.54481  0.56988  1.0000
  C   C1        1.0  0.47670  0.28915  0.49010  1.0000
  C   C2        1.0  0.02330  0.71085  0.99010  1.0000
  C   C3        1.0  0.52330  0.78915  0.00990  1.0000
  C   C4        1.0  0.97670  0.21085  0.50990  1.0000
  H   H1        1.0  0.53660  0.22560  0.49370  1.0000
  H   H2        1.0  0.96340  0.77440  0.99370  1.0000
  H   H3        1.0  0.46340  0.72560  0.00630  1.0000
  H   H4        1.0  0.03660  0.27440  0.50630  1.0000
  C   C5        1.0  0.01420  0.27498  0.99230  1.0000
  C   C6        1.0  0.48580  0.72502  0.49230  1.0000
  C   C7        1.0  0.98580  0.77498  0.50770  1.0000
  C   C8        1.0  0.51420  0.22502  0.00770  1.0000
  H   H5        1.0  0.95540  0.21120  0.99980  1.0000
  H   H6        1.0  0.54460  0.78880  0.49980  1.0000
  H   H7        1.0  0.04460  0.71120  0.50020  1.0000
  H   H8        1.0  0.45540  0.28880  0.00020  1.0000
  C   C9        1.0  0.32930  0.01147  0.51800  1.0000
  C   C10       1.0  0.17070  0.98853  0.01800  1.0000
  C   C11       1.0  0.67070  0.51147  0.98200  1.0000
  C   C12       1.0  0.82930  0.48853  0.48200  1.0000
  H   H9        1.0  0.20200  0.01340  0.49650  1.0000
  H   H10       1.0  0.29800  0.98660  0.99650  1.0000
  H   H11       1.0  0.79800  0.51340  0.00350  1.0000
  H   H12       1.0  0.70200  0.48660  0.50350  1.0000
