data_image0
_chemical_formula_structural       Cu6O36C6H6C12H12
_chemical_formula_sum              "Cu6 O36 C18 H18"
_cell_length_a       7.3338
_cell_length_b       7.3338
_cell_length_c       24.41
_cell_angle_alpha    90
_cell_angle_beta     90
_cell_angle_gamma    120

_space_group_name_H-M_alt    "P 1"
_space_group_IT_number       1

loop_
  _space_group_symop_operation_xyz
  'x, y, z'

loop_
  _atom_site_type_symbol
  _atom_site_label
  _atom_site_symmetry_multiplicity
  _atom_site_fract_x
  _atom_site_fract_y
  _atom_site_fract_z
  _atom_site_occupancy
  Cu  Cu1       1.0  0.36398  0.68199  0.08330  1.0000
  Cu  Cu2       1.0  0.31801  0.68199  0.41663  1.0000
  Cu  Cu3       1.0  0.31801  0.63602  0.74997  1.0000
  Cu  Cu4       1.0  0.63602  0.31801  0.58330  1.0000
  Cu  Cu5       1.0  0.68199  0.31801  0.91663  1.0000
  Cu  Cu6       1.0  0.68199  0.36398  0.24997  1.0000
  O   O1        1.0  0.33720  0.45100  0.13230  1.0000
  O   O2        1.0  0.54900  0.88620  0.46563  1.0000
  O   O3        1.0  0.11380  0.66280  0.79897  1.0000
  O   O4        1.0  0.66280  0.54900  0.63230  1.0000
  O   O5        1.0  0.45100  0.11380  0.96563  1.0000
  O   O6        1.0  0.88620  0.33720  0.29897  1.0000
  O   O7        1.0  0.45100  0.33720  0.20103  1.0000
  O   O8        1.0  0.88620  0.54900  0.86770  1.0000
  O   O9        1.0  0.66280  0.11380  0.53437  1.0000
  O   O10       1.0  0.54900  0.66280  0.70103  1.0000
  O   O11       1.0  0.11380  0.45100  0.36770  1.0000
  O   O12       1.0  0.33720  0.88620  0.03437  1.0000
  O   O13       1.0  0.92000  0.29950  0.96460  1.0000
  O   O14       1.0  0.70050  0.62050  0.29793  1.0000
  O   O15       1.0  0.37950  0.08000  0.63127  1.0000
  O   O16       1.0  0.08000  0.70050  0.46460  1.0000
  O   O17       1.0  0.29950  0.37950  0.79793  1.0000
  O   O18       1.0  0.62050  0.92000  0.13127  1.0000
  O   O19       1.0  0.29950  0.92000  0.36873  1.0000
  O   O20       1.0  0.62050  0.70050  0.03540  1.0000
  O   O21       1.0  0.08000  0.37950  0.70207  1.0000
  O   O22       1.0  0.70050  0.08000  0.86873  1.0000
  O   O23       1.0  0.37950  0.29950  0.53540  1.0000
  O   O24       1.0  0.92000  0.62050  0.20207  1.0000
  O   O25       1.0  0.14260  0.42010  0.03390  1.0000
  O   O26       1.0  0.57990  0.72250  0.36723  1.0000
  O   O27       1.0  0.27750  0.85740  0.70057  1.0000
  O   O28       1.0  0.85740  0.57990  0.53390  1.0000
  O   O29       1.0  0.42010  0.27750  0.86723  1.0000
  O   O30       1.0  0.72250  0.14260  0.20057  1.0000
  O   O31       1.0  0.42010  0.14260  0.29943  1.0000
  O   O32       1.0  0.72250  0.57990  0.96610  1.0000
  O   O33       1.0  0.85740  0.27750  0.63277  1.0000
  O   O34       1.0  0.57990  0.85740  0.79943  1.0000
  O   O35       1.0  0.27750  0.42010  0.46610  1.0000
  O   O36       1.0  0.14260  0.72250  0.13277  1.0000
  C   C1        1.0  0.47400  0.47400  0.16670  1.0000
  C   C2        1.0  0.52600  0.00000  0.50003  1.0000
  C   C3        1.0  0.00000  0.52600  0.83337  1.0000
  C   C4        1.0  0.52600  0.52600  0.66670  1.0000
  C   C5        1.0  0.47400  0.00000  0.00003  1.0000
  C   C6        1.0  1.00000  0.47400  0.33337  1.0000
  H   H1        1.0  0.60080  0.60080  0.16670  1.0000
  H   H2        1.0  0.39920  0.00000  0.50003  1.0000
  H   H3        1.0  0.00000  0.39920  0.83337  1.0000
  H   H4        1.0  0.39920  0.39920  0.66670  1.0000
  H   H5        1.0  0.60080  0.00000  0.00003  1.0000
  H   H6        1.0  0.00000  0.60080  0.33337  1.0000
  C   C7        1.0  0.03170  0.43350  0.99930  1.0000
  C   C8        1.0  0.56650  0.59820  0.33263  1.0000
  C   C9        1.0  0.40180  0.96830  0.66597  1.0000
  C   C10       1.0  0.96830  0.56650  0.49930  1.0000
  C   C11       1.0  0.43350  0.40180  0.83263  1.0000
  C   C12       1.0  0.59820  0.03170  0.16597  1.0000
  C   C13       1.0  0.43350  0.03170  0.33403  1.0000
  C   C14       1.0  0.59820  0.56650  0.00070  1.0000
  C   C15       1.0  0.96830  0.40180  0.66737  1.0000
  C   C16       1.0  0.56650  0.96830  0.83403  1.0000
  C   C17       1.0  0.40180  0.43350  0.50070  1.0000
  C   C18       1.0  0.03170  0.59820  0.16737  1.0000
  H   H7        1.0  0.02990  0.55930  0.99850  1.0000
  H   H8        1.0  0.44070  0.47060  0.33183  1.0000
  H   H9        1.0  0.52940  0.97010  0.66517  1.0000
  H   H10       1.0  0.97010  0.44070  0.49850  1.0000
  H   H11       1.0  0.55930  0.52940  0.83183  1.0000
  H   H12       1.0  0.47060  0.02990  0.16517  1.0000
  H   H13       1.0  0.55930  0.02990  0.33483  1.0000
  H   H14       1.0  0.47060  0.44070  0.00150  1.0000
  H   H15       1.0  0.97010  0.52940  0.66817  1.0000
  H   H16       1.0  0.44070  0.97010  0.83483  1.0000
  H   H17       1.0  0.52940  0.55930  0.50150  1.0000
  H   H18       1.0  0.02990  0.47060  0.16817  1.0000
