data_image0
_chemical_formula_structural       Cu4O24C4H4C4H4C4H4
_chemical_formula_sum              "Cu4 O24 C12 H12"
_cell_length_a       7.201
_cell_length_b       12.9288
_cell_length_c       8.1361
_cell_angle_alpha    90
_cell_angle_beta     90
_cell_angle_gamma    90

_space_group_name_H-M_alt    "P 1"
_space_group_IT_number       1

loop_
  _space_group_symop_operation_xyz
  'x, y, z'

loop_
  _atom_site_type_symbol
  _atom_site_label
  _atom_site_symmetry_multiplicity
  _atom_site_fract_x
  _atom_site_fract_y
  _atom_site_fract_z
  _atom_site_occupancy
  Cu  Cu1       1.0  0.24447  0.16796  0.76198  1.0000
  Cu  Cu2       1.0  0.25553  0.83204  0.26198  1.0000
  Cu  Cu3       1.0  0.75553  0.66796  0.73802  1.0000
  Cu  Cu4       1.0  0.74447  0.33204  0.23802  1.0000
  O   O1        1.0  0.36180  0.30813  0.59770  1.0000
  O   O2        1.0  0.13820  0.69187  0.09770  1.0000
  O   O3        1.0  0.63820  0.80813  0.90230  1.0000
  O   O4        1.0  0.86180  0.19187  0.40230  1.0000
  O   O5        1.0  0.52110  0.34767  0.37460  1.0000
  O   O6        1.0  0.97890  0.65233  0.87460  1.0000
  O   O7        1.0  0.47890  0.84767  0.12540  1.0000
  O   O8        1.0  0.02110  0.15233  0.62540  1.0000
  O   O9        1.0  0.14220  0.28520  0.89012  1.0000
  O   O10       1.0  0.35780  0.71480  0.39012  1.0000
  O   O11       1.0  0.85780  0.78520  0.60988  1.0000
  O   O12       1.0  0.64220  0.21480  0.10988  1.0000
  O   O13       1.0  0.96080  0.34396  0.08661  1.0000
  O   O14       1.0  0.53920  0.65604  0.58661  1.0000
  O   O15       1.0  0.03920  0.84396  0.41339  1.0000
  O   O16       1.0  0.46080  0.15604  0.91339  1.0000
  O   O17       1.0  0.38530  0.06717  0.63240  1.0000
  O   O18       1.0  0.11470  0.93283  0.13240  1.0000
  O   O19       1.0  0.61470  0.56717  0.86760  1.0000
  O   O20       1.0  0.88530  0.43283  0.36760  1.0000
  O   O21       1.0  0.42350  0.95520  0.43050  1.0000
  O   O22       1.0  0.07650  0.04480  0.93050  1.0000
  O   O23       1.0  0.57650  0.45520  0.06950  1.0000
  O   O24       1.0  0.92350  0.54480  0.56950  1.0000
  C   C1        1.0  0.47830  0.29091  0.49200  1.0000
  C   C2        1.0  0.02170  0.70909  0.99200  1.0000
  C   C3        1.0  0.52170  0.79091  0.00800  1.0000
  C   C4        1.0  0.97830  0.20909  0.50800  1.0000
  H   H1        1.0  0.54180  0.22850  0.50020  1.0000
  H   H2        1.0  0.95820  0.77150  0.00020  1.0000
  H   H3        1.0  0.45820  0.72850  0.99980  1.0000
  H   H4        1.0  0.04180  0.27150  0.49980  1.0000
  C   C5        1.0  0.01380  0.27572  0.99090  1.0000
  C   C6        1.0  0.48620  0.72428  0.49090  1.0000
  C   C7        1.0  0.98620  0.77572  0.50910  1.0000
  C   C8        1.0  0.51380  0.22428  0.00910  1.0000
  H   H5        1.0  0.95280  0.21240  0.99480  1.0000
  H   H6        1.0  0.54720  0.78760  0.49480  1.0000
  H   H7        1.0  0.04720  0.71240  0.50520  1.0000
  H   H8        1.0  0.45280  0.28760  0.00520  1.0000
  C   C9        1.0  0.32960  0.01179  0.51830  1.0000
  C   C10       1.0  0.17040  0.98821  0.01830  1.0000
  C   C11       1.0  0.67040  0.51179  0.98170  1.0000
  C   C12       1.0  0.82960  0.48821  0.48170  1.0000
  H   H9        1.0  0.20270  0.01330  0.49710  1.0000
  H   H10       1.0  0.29730  0.98670  0.99710  1.0000
  H   H11       1.0  0.79730  0.51330  0.00290  1.0000
  H   H12       1.0  0.70270  0.48670  0.50290  1.0000
