data_image0
_chemical_formula_structural       Sr8V48O136N4C8H8C4H8C4H8C4H8C4N4C4H8C4H8C4H12C4H12C4H12N4C4H8C4H8C4H8C4O4
_chemical_formula_sum              "Sr8 V48 O140 N12 C60 H108"
_cell_length_a       10.936
_cell_length_b       29.5293
_cell_length_c       28.4759
_cell_angle_alpha    90
_cell_angle_beta     95.4177
_cell_angle_gamma    90

_space_group_name_H-M_alt    "P 1"
_space_group_IT_number       1

loop_
  _space_group_symop_operation_xyz
  'x, y, z'

loop_
  _atom_site_type_symbol
  _atom_site_label
  _atom_site_symmetry_multiplicity
  _atom_site_fract_x
  _atom_site_fract_y
  _atom_site_fract_z
  _atom_site_occupancy
  Sr  Sr1       1.0  0.26530  0.30780  0.25084  1.0000
  Sr  Sr2       1.0  0.73470  0.80780  0.24916  1.0000
  Sr  Sr3       1.0  0.73470  0.69220  0.74916  1.0000
  Sr  Sr4       1.0  0.26530  0.19220  0.75084  1.0000
  Sr  Sr5       1.0  0.92510  0.31060  0.24688  1.0000
  Sr  Sr6       1.0  0.07490  0.81060  0.25312  1.0000
  Sr  Sr7       1.0  0.07490  0.68940  0.75312  1.0000
  Sr  Sr8       1.0  0.92510  0.18940  0.74688  1.0000
  V   V1        1.0  0.42549  0.21455  0.21831  1.0000
  V   V2        1.0  0.57451  0.71455  0.28169  1.0000
  V   V3        1.0  0.57451  0.78545  0.78169  1.0000
  V   V4        1.0  0.42549  0.28545  0.71831  1.0000
  V   V5        1.0  0.49456  0.22406  0.31853  1.0000
  V   V6        1.0  0.50544  0.72406  0.18147  1.0000
  V   V7        1.0  0.50544  0.77594  0.68147  1.0000
  V   V8        1.0  0.49456  0.27594  0.81853  1.0000
  V   V9        1.0  0.73401  0.20715  0.27589  1.0000
  V   V10       1.0  0.26599  0.70715  0.22411  1.0000
  V   V11       1.0  0.26599  0.79285  0.72411  1.0000
  V   V12       1.0  0.73401  0.29285  0.77589  1.0000
  V   V13       1.0  0.69620  0.24487  0.16264  1.0000
  V   V14       1.0  0.30380  0.74487  0.33736  1.0000
  V   V15       1.0  0.30380  0.75513  0.83736  1.0000
  V   V16       1.0  0.69620  0.25513  0.66264  1.0000
  V   V17       1.0  0.43584  0.28275  0.14499  1.0000
  V   V18       1.0  0.56416  0.78275  0.35501  1.0000
  V   V19       1.0  0.56416  0.71725  0.85501  1.0000
  V   V20       1.0  0.43584  0.21725  0.64499  1.0000
  V   V21       1.0  0.50321  0.33251  0.35851  1.0000
  V   V22       1.0  0.49679  0.83251  0.14149  1.0000
  V   V23       1.0  0.49679  0.66749  0.64149  1.0000
  V   V24       1.0  0.50321  0.16749  0.85851  1.0000
  V   V25       1.0  0.79005  0.27734  0.34561  1.0000
  V   V26       1.0  0.20995  0.77734  0.15439  1.0000
  V   V27       1.0  0.20995  0.72266  0.65439  1.0000
  V   V28       1.0  0.79005  0.22266  0.84561  1.0000
  V   V29       1.0  0.70938  0.41153  0.22237  1.0000
  V   V30       1.0  0.29062  0.91153  0.27763  1.0000
  V   V31       1.0  0.29062  0.58847  0.77763  1.0000
  V   V32       1.0  0.70938  0.08847  0.72237  1.0000
  V   V33       1.0  0.43881  0.39998  0.28605  1.0000
  V   V34       1.0  0.56119  0.89998  0.21395  1.0000
  V   V35       1.0  0.56119  0.60002  0.71395  1.0000
  V   V36       1.0  0.43881  0.10002  0.78605  1.0000
  V   V37       1.0  0.72653  0.34176  0.15144  1.0000
  V   V38       1.0  0.27347  0.84176  0.34856  1.0000
  V   V39       1.0  0.27347  0.65824  0.84856  1.0000
  V   V40       1.0  0.72653  0.15824  0.65144  1.0000
  V   V41       1.0  0.44561  0.39233  0.18429  1.0000
  V   V42       1.0  0.55439  0.89233  0.31571  1.0000
  V   V43       1.0  0.55439  0.60767  0.81571  1.0000
  V   V44       1.0  0.44561  0.10767  0.68429  1.0000
  V   V45       1.0  0.74569  0.37408  0.33584  1.0000
  V   V46       1.0  0.25431  0.87408  0.16416  1.0000
  V   V47       1.0  0.25431  0.62592  0.66416  1.0000
  V   V48       1.0  0.74569  0.12592  0.83584  1.0000
  O   O1        1.0  0.39730  0.34159  0.15265  1.0000
  O   O2        1.0  0.60270  0.84159  0.34735  1.0000
  O   O3        1.0  0.60270  0.65841  0.84735  1.0000
  O   O4        1.0  0.39730  0.15841  0.65265  1.0000
  O   O5        1.0  0.46520  0.27340  0.35328  1.0000
  O   O6        1.0  0.53480  0.77340  0.14672  1.0000
  O   O7        1.0  0.53480  0.72660  0.64672  1.0000
  O   O8        1.0  0.46520  0.22660  0.85328  1.0000
  O   O9        1.0  0.53080  0.22910  0.17118  1.0000
  O   O10       1.0  0.46920  0.72910  0.32882  1.0000
  O   O11       1.0  0.46920  0.77090  0.82882  1.0000
  O   O12       1.0  0.53080  0.27090  0.67118  1.0000
  O   O13       1.0  0.56170  0.19856  0.26193  1.0000
  O   O14       1.0  0.43830  0.69856  0.23807  1.0000
  O   O15       1.0  0.43830  0.80144  0.73807  1.0000
  O   O16       1.0  0.56170  0.30144  0.76193  1.0000
  O   O17       1.0  0.66810  0.23231  0.33322  1.0000
  O   O18       1.0  0.33190  0.73231  0.16678  1.0000
  O   O19       1.0  0.33190  0.76769  0.66678  1.0000
  O   O20       1.0  0.66810  0.26769  0.83322  1.0000
  O   O21       1.0  0.54500  0.41805  0.23995  1.0000
  O   O22       1.0  0.45500  0.91805  0.26005  1.0000
  O   O23       1.0  0.45500  0.58195  0.76005  1.0000
  O   O24       1.0  0.54500  0.08195  0.73995  1.0000
  O   O25       1.0  0.67420  0.31947  0.36512  1.0000
  O   O26       1.0  0.32580  0.81947  0.13488  1.0000
  O   O27       1.0  0.32580  0.68053  0.63488  1.0000
  O   O28       1.0  0.67420  0.18053  0.86512  1.0000
  O   O29       1.0  0.57590  0.38759  0.33080  1.0000
  O   O30       1.0  0.42410  0.88759  0.16920  1.0000
  O   O31       1.0  0.42410  0.61241  0.66920  1.0000
  O   O32       1.0  0.57590  0.11241  0.83080  1.0000
  O   O33       1.0  0.75400  0.21268  0.21372  1.0000
  O   O34       1.0  0.24600  0.71268  0.28628  1.0000
  O   O35       1.0  0.24600  0.78732  0.78628  1.0000
  O   O36       1.0  0.75400  0.28732  0.71372  1.0000
  O   O37       1.0  0.60970  0.38528  0.16728  1.0000
  O   O38       1.0  0.39030  0.88528  0.33272  1.0000
  O   O39       1.0  0.39030  0.61472  0.83272  1.0000
  O   O40       1.0  0.60970  0.11472  0.66728  1.0000
  O   O41       1.0  0.36550  0.23396  0.27359  1.0000
  O   O42       1.0  0.63450  0.73396  0.22641  1.0000
  O   O43       1.0  0.63450  0.76604  0.72641  1.0000
  O   O44       1.0  0.36550  0.26604  0.77359  1.0000
  O   O45       1.0  0.37500  0.35135  0.31663  1.0000
  O   O46       1.0  0.62500  0.85135  0.18337  1.0000
  O   O47       1.0  0.62500  0.64865  0.68337  1.0000
  O   O48       1.0  0.37500  0.14865  0.81663  1.0000
  O   O49       1.0  0.76810  0.40562  0.28343  1.0000
  O   O50       1.0  0.23190  0.90562  0.21657  1.0000
  O   O51       1.0  0.23190  0.59438  0.71657  1.0000
  O   O52       1.0  0.76810  0.09438  0.78343  1.0000
  O   O53       1.0  0.78820  0.15851  0.29084  1.0000
  O   O54       1.0  0.21180  0.65851  0.20916  1.0000
  O   O55       1.0  0.21180  0.84149  0.70916  1.0000
  O   O56       1.0  0.78820  0.34149  0.79084  1.0000
  O   O57       1.0  0.81210  0.28959  0.17048  1.0000
  O   O58       1.0  0.18790  0.78959  0.32952  1.0000
  O   O59       1.0  0.18790  0.71041  0.82952  1.0000
  O   O60       1.0  0.81210  0.21041  0.67048  1.0000
  O   O61       1.0  0.60270  0.29817  0.13518  1.0000
  O   O62       1.0  0.39730  0.79817  0.36482  1.0000
  O   O63       1.0  0.39730  0.70183  0.86482  1.0000
  O   O64       1.0  0.60270  0.20183  0.63518  1.0000
  O   O65       1.0  0.85850  0.33056  0.32585  1.0000
  O   O66       1.0  0.14150  0.83056  0.17415  1.0000
  O   O67       1.0  0.14150  0.66944  0.67415  1.0000
  O   O68       1.0  0.85850  0.16944  0.82585  1.0000
  O   O69       1.0  0.34310  0.38391  0.23242  1.0000
  O   O70       1.0  0.65690  0.88391  0.26758  1.0000
  O   O71       1.0  0.65690  0.61609  0.76758  1.0000
  O   O72       1.0  0.34310  0.11609  0.73242  1.0000
  O   O73       1.0  0.82010  0.37220  0.19956  1.0000
  O   O74       1.0  0.17990  0.87220  0.30044  1.0000
  O   O75       1.0  0.17990  0.62780  0.80044  1.0000
  O   O76       1.0  0.82010  0.12780  0.69956  1.0000
  O   O77       1.0  0.38990  0.43394  0.15395  1.0000
  O   O78       1.0  0.61010  0.93394  0.34605  1.0000
  O   O79       1.0  0.61010  0.56606  0.84605  1.0000
  O   O80       1.0  0.38990  0.06606  0.65395  1.0000
  O   O81       1.0  0.85350  0.24812  0.29573  1.0000
  O   O82       1.0  0.14650  0.74812  0.20427  1.0000
  O   O83       1.0  0.14650  0.75188  0.70427  1.0000
  O   O84       1.0  0.85350  0.25188  0.79573  1.0000
  O   O85       1.0  0.80540  0.40384  0.37858  1.0000
  O   O86       1.0  0.19460  0.90384  0.12142  1.0000
  O   O87       1.0  0.19460  0.59616  0.62142  1.0000
  O   O88       1.0  0.80540  0.09616  0.87858  1.0000
  O   O89       1.0  0.46990  0.34676  0.40941  1.0000
  O   O90       1.0  0.53010  0.84676  0.09059  1.0000
  O   O91       1.0  0.53010  0.65324  0.59059  1.0000
  O   O92       1.0  0.46990  0.15324  0.90941  1.0000
  O   O93       1.0  0.73080  0.21631  0.11843  1.0000
  O   O94       1.0  0.26920  0.71631  0.38157  1.0000
  O   O95       1.0  0.26920  0.78369  0.88157  1.0000
  O   O96       1.0  0.73080  0.28369  0.61843  1.0000
  O   O97       1.0  0.45870  0.18139  0.34854  1.0000
  O   O98       1.0  0.54130  0.68139  0.15146  1.0000
  O   O99       1.0  0.54130  0.81861  0.65146  1.0000
  O   O100      1.0  0.45870  0.31861  0.84854  1.0000
  O   O101      1.0  0.74690  0.46061  0.20709  1.0000
  O   O102      1.0  0.25310  0.96061  0.29291  1.0000
  O   O103      1.0  0.25310  0.53939  0.79291  1.0000
  O   O104      1.0  0.74690  0.03939  0.70709  1.0000
  O   O105      1.0  0.87120  0.26131  0.39192  1.0000
  O   O106      1.0  0.12880  0.76131  0.10808  1.0000
  O   O107      1.0  0.12880  0.73869  0.60808  1.0000
  O   O108      1.0  0.87120  0.23869  0.89192  1.0000
  O   O109      1.0  0.37510  0.26872  0.09396  1.0000
  O   O110      1.0  0.62490  0.76872  0.40604  1.0000
  O   O111      1.0  0.62490  0.73128  0.90604  1.0000
  O   O112      1.0  0.37510  0.23128  0.59396  1.0000
  O   O113      1.0  0.37730  0.44427  0.30546  1.0000
  O   O114      1.0  0.62270  0.94427  0.19454  1.0000
  O   O115      1.0  0.62270  0.55573  0.69454  1.0000
  O   O116      1.0  0.37730  0.05573  0.80546  1.0000
  O   O117      1.0  0.77530  0.35734  0.10305  1.0000
  O   O118      1.0  0.22470  0.85734  0.39695  1.0000
  O   O119      1.0  0.22470  0.64266  0.89695  1.0000
  O   O120      1.0  0.77530  0.14266  0.60305  1.0000
  O   O121      1.0  0.35910  0.16791  0.20406  1.0000
  O   O122      1.0  0.64090  0.66791  0.29594  1.0000
  O   O123      1.0  0.64090  0.83209  0.79594  1.0000
  O   O124      1.0  0.35910  0.33209  0.70406  1.0000
  O   O125      1.0  0.08830  0.32590  0.19031  1.0000
  O   O126      1.0  0.91170  0.82590  0.30969  1.0000
  O   O127      1.0  0.91170  0.67410  0.80969  1.0000
  O   O128      1.0  0.08830  0.17410  0.69031  1.0000
  O   O129      1.0  0.10310  0.34880  0.29180  1.0000
  O   O130      1.0  0.89690  0.84880  0.20820  1.0000
  O   O131      1.0  0.89690  0.65120  0.70820  1.0000
  O   O132      1.0  0.10310  0.15120  0.79180  1.0000
  O   O133      1.0  0.09250  0.25175  0.25700  1.0000
  O   O134      1.0  0.90750  0.75175  0.24300  1.0000
  O   O135      1.0  0.90750  0.74825  0.74300  1.0000
  O   O136      1.0  0.09250  0.24825  0.75700  1.0000
  N   N1        1.0  0.07070  0.17600  0.24980  1.0000
  N   N2        1.0  0.92930  0.67600  0.25020  1.0000
  N   N3        1.0  0.92930  0.82400  0.75020  1.0000
  N   N4        1.0  0.07070  0.32400  0.74980  1.0000
  C   C1        1.0  0.09710  0.21460  0.27880  1.0000
  C   C2        1.0  0.90290  0.71460  0.22120  1.0000
  C   C3        1.0  0.90290  0.78540  0.72120  1.0000
  C   C4        1.0  0.09710  0.28540  0.77880  1.0000
  C   C5        1.0  0.11860  0.19960  0.32620  1.0000
  C   C6        1.0  0.88140  0.69960  0.17380  1.0000
  C   C7        1.0  0.88140  0.80040  0.67380  1.0000
  C   C8        1.0  0.11860  0.30040  0.82620  1.0000
  H   H1        1.0  0.20240  0.20820  0.33940  1.0000
  H   H2        1.0  0.79760  0.70820  0.16060  1.0000
  H   H3        1.0  0.79760  0.79180  0.66060  1.0000
  H   H4        1.0  0.20240  0.29180  0.83940  1.0000
  H   H5        1.0  0.05880  0.21370  0.34580  1.0000
  H   H6        1.0  0.94120  0.71370  0.15420  1.0000
  H   H7        1.0  0.94120  0.78630  0.65420  1.0000
  H   H8        1.0  0.05880  0.28630  0.84580  1.0000
  C   C9        1.0  0.10540  0.15170  0.32650  1.0000
  C   C10       1.0  0.89460  0.65170  0.17350  1.0000
  C   C11       1.0  0.89460  0.84830  0.67350  1.0000
  C   C12       1.0  0.10540  0.34830  0.82650  1.0000
  H   H9        1.0  0.03930  0.14300  0.34620  1.0000
  H   H10       1.0  0.96070  0.64300  0.15380  1.0000
  H   H11       1.0  0.96070  0.85700  0.65380  1.0000
  H   H12       1.0  0.03930  0.35700  0.84620  1.0000
  H   H13       1.0  0.18290  0.13740  0.33980  1.0000
  H   H14       1.0  0.81710  0.63740  0.16020  1.0000
  H   H15       1.0  0.81710  0.86260  0.66020  1.0000
  H   H16       1.0  0.18290  0.36260  0.83980  1.0000
  C   C13       1.0  0.07580  0.13720  0.27930  1.0000
  C   C14       1.0  0.92420  0.63720  0.22070  1.0000
  C   C15       1.0  0.92420  0.86280  0.72070  1.0000
  C   C16       1.0  0.07580  0.36280  0.77930  1.0000
  H   H17       1.0  0.13910  0.11590  0.27000  1.0000
  H   H18       1.0  0.86090  0.61590  0.23000  1.0000
  H   H19       1.0  0.86090  0.88410  0.73000  1.0000
  H   H20       1.0  0.13910  0.38410  0.77000  1.0000
  H   H21       1.0  0.99550  0.12150  0.27640  1.0000
  H   H22       1.0  0.00450  0.62150  0.22360  1.0000
  H   H23       1.0  0.00450  0.87850  0.72360  1.0000
  H   H24       1.0  0.99550  0.37850  0.77640  1.0000
  C   C17       1.0  0.13250  0.35510  0.37870  1.0000
  C   C18       1.0  0.86750  0.85510  0.12130  1.0000
  C   C19       1.0  0.86750  0.64490  0.62130  1.0000
  C   C20       1.0  0.13250  0.14490  0.87870  1.0000
  H   H25       1.0  0.06940  0.33300  0.38650  1.0000
  H   H26       1.0  0.93060  0.83300  0.11350  1.0000
  H   H27       1.0  0.93060  0.66700  0.61350  1.0000
  H   H28       1.0  0.06940  0.16700  0.88650  1.0000
  H   H29       1.0  0.21410  0.34050  0.38390  1.0000
  H   H30       1.0  0.78590  0.84050  0.11610  1.0000
  H   H31       1.0  0.78590  0.65950  0.61610  1.0000
  H   H32       1.0  0.21410  0.15950  0.88390  1.0000
  C   C21       1.0  0.10960  0.36910  0.33100  1.0000
  C   C22       1.0  0.89040  0.86910  0.16900  1.0000
  C   C23       1.0  0.89040  0.63090  0.66900  1.0000
  C   C24       1.0  0.10960  0.13090  0.83100  1.0000
  N   N5        1.0  0.09160  0.41670  0.33040  1.0000
  N   N6        1.0  0.90840  0.91670  0.16960  1.0000
  N   N7        1.0  0.90840  0.58330  0.66960  1.0000
  N   N8        1.0  0.09160  0.08330  0.83040  1.0000
  C   C25       1.0  0.10330  0.43220  0.37790  1.0000
  C   C26       1.0  0.89670  0.93220  0.12210  1.0000
  C   C27       1.0  0.89670  0.56780  0.62210  1.0000
  C   C28       1.0  0.10330  0.06780  0.87790  1.0000
  H   H33       1.0  0.17090  0.45450  0.38260  1.0000
  H   H34       1.0  0.82910  0.95450  0.11740  1.0000
  H   H35       1.0  0.82910  0.54550  0.61740  1.0000
  H   H36       1.0  0.17090  0.04550  0.88260  1.0000
  H   H37       1.0  0.02630  0.44700  0.38530  1.0000
  H   H38       1.0  0.97370  0.94700  0.11470  1.0000
  H   H39       1.0  0.97370  0.55300  0.61470  1.0000
  H   H40       1.0  0.02630  0.05300  0.88530  1.0000
  C   C29       1.0  0.12860  0.39410  0.40769  1.0000
  C   C30       1.0  0.87140  0.89410  0.09231  1.0000
  C   C31       1.0  0.87140  0.60590  0.59231  1.0000
  C   C32       1.0  0.12860  0.10590  0.90769  1.0000
  H   H41       1.0  0.20830  0.39820  0.42670  1.0000
  H   H42       1.0  0.79170  0.89820  0.07330  1.0000
  H   H43       1.0  0.79170  0.60180  0.57330  1.0000
  H   H44       1.0  0.20830  0.10180  0.92670  1.0000
  H   H45       1.0  0.06370  0.39070  0.42940  1.0000
  H   H46       1.0  0.93630  0.89070  0.07060  1.0000
  H   H47       1.0  0.93630  0.60930  0.57060  1.0000
  H   H48       1.0  0.06370  0.10930  0.92940  1.0000
  C   C33       1.0  0.06870  0.44260  0.28790  1.0000
  C   C34       1.0  0.93130  0.94260  0.21210  1.0000
  C   C35       1.0  0.93130  0.55740  0.71210  1.0000
  C   C36       1.0  0.06870  0.05740  0.78790  1.0000
  H   H49       1.0  0.08570  0.42390  0.26080  1.0000
  H   H50       1.0  0.91430  0.92390  0.23920  1.0000
  H   H51       1.0  0.91430  0.57610  0.73920  1.0000
  H   H52       1.0  0.08570  0.07610  0.76080  1.0000
  H   H53       1.0  0.12230  0.46930  0.28950  1.0000
  H   H54       1.0  0.87770  0.96930  0.21050  1.0000
  H   H55       1.0  0.87770  0.53070  0.71050  1.0000
  H   H56       1.0  0.12230  0.03070  0.78950  1.0000
  H   H57       1.0  0.98270  0.45230  0.28420  1.0000
  H   H58       1.0  0.01730  0.95230  0.21580  1.0000
  H   H59       1.0  0.01730  0.54770  0.71580  1.0000
  H   H60       1.0  0.98270  0.04770  0.78420  1.0000
  C   C37       1.0  0.04770  0.17760  0.20150  1.0000
  C   C38       1.0  0.95230  0.67760  0.29850  1.0000
  C   C39       1.0  0.95230  0.82240  0.79850  1.0000
  C   C40       1.0  0.04770  0.32240  0.70150  1.0000
  H   H61       1.0  0.96130  0.18540  0.19300  1.0000
  H   H62       1.0  0.03870  0.68540  0.30700  1.0000
  H   H63       1.0  0.03870  0.81460  0.80700  1.0000
  H   H64       1.0  0.96130  0.31460  0.69300  1.0000
  H   H65       1.0  0.06510  0.14790  0.18810  1.0000
  H   H66       1.0  0.93490  0.64790  0.31190  1.0000
  H   H67       1.0  0.93490  0.85210  0.81190  1.0000
  H   H68       1.0  0.06510  0.35210  0.68810  1.0000
  H   H69       1.0  0.10030  0.20060  0.18880  1.0000
  H   H70       1.0  0.89970  0.70060  0.31120  1.0000
  H   H71       1.0  0.89970  0.79940  0.81120  1.0000
  H   H72       1.0  0.10030  0.29940  0.68880  1.0000
  C   C41       1.0  0.06230  0.26860  0.11320  1.0000
  C   C42       1.0  0.93770  0.76860  0.38680  1.0000
  C   C43       1.0  0.93770  0.73140  0.88680  1.0000
  C   C44       1.0  0.06230  0.23140  0.61320  1.0000
  H   H73       1.0  0.97630  0.26040  0.10430  1.0000
  H   H74       1.0  0.02370  0.76040  0.39570  1.0000
  H   H75       1.0  0.02370  0.73960  0.89570  1.0000
  H   H76       1.0  0.97630  0.23960  0.60430  1.0000
  H   H77       1.0  0.08660  0.25830  0.14540  1.0000
  H   H78       1.0  0.91340  0.75830  0.35460  1.0000
  H   H79       1.0  0.91340  0.74170  0.85460  1.0000
  H   H80       1.0  0.08660  0.24170  0.64540  1.0000
  H   H81       1.0  0.11460  0.25410  0.09140  1.0000
  H   H82       1.0  0.88540  0.75410  0.40860  1.0000
  H   H83       1.0  0.88540  0.74590  0.90860  1.0000
  H   H84       1.0  0.11460  0.24590  0.59140  1.0000
  N   N9        1.0  0.07570  0.31610  0.11070  1.0000
  N   N10       1.0  0.92430  0.81610  0.38930  1.0000
  N   N11       1.0  0.92430  0.68390  0.88930  1.0000
  N   N12       1.0  0.07570  0.18390  0.61070  1.0000
  C   C45       1.0  0.07410  0.34460  0.07055  1.0000
  C   C46       1.0  0.92590  0.84460  0.42945  1.0000
  C   C47       1.0  0.92590  0.65540  0.92945  1.0000
  C   C48       1.0  0.07410  0.15540  0.57055  1.0000
  H   H85       1.0  0.14520  0.33780  0.05270  1.0000
  H   H86       1.0  0.85480  0.83780  0.44730  1.0000
  H   H87       1.0  0.85480  0.66220  0.94730  1.0000
  H   H88       1.0  0.14520  0.16220  0.55270  1.0000
  H   H89       1.0  0.99790  0.33960  0.04950  1.0000
  H   H90       1.0  0.00210  0.83960  0.45050  1.0000
  H   H91       1.0  0.00210  0.66040  0.95050  1.0000
  H   H92       1.0  0.99790  0.16040  0.54950  1.0000
  C   C49       1.0  0.07980  0.39020  0.08640  1.0000
  C   C50       1.0  0.92020  0.89020  0.41360  1.0000
  C   C51       1.0  0.92020  0.60980  0.91360  1.0000
  C   C52       1.0  0.07980  0.10980  0.58640  1.0000
  H   H93       1.0  0.00630  0.40700  0.07300  1.0000
  H   H94       1.0  0.99370  0.90700  0.42700  1.0000
  H   H95       1.0  0.99370  0.59300  0.92700  1.0000
  H   H96       1.0  0.00630  0.09300  0.57300  1.0000
  H   H97       1.0  0.15360  0.40530  0.07610  1.0000
  H   H98       1.0  0.84640  0.90530  0.42390  1.0000
  H   H99       1.0  0.84640  0.59470  0.92390  1.0000
  H   H100      1.0  0.15360  0.09470  0.57610  1.0000
  C   C53       1.0  0.08490  0.38990  0.13640  1.0000
  C   C54       1.0  0.91510  0.88990  0.36360  1.0000
  C   C55       1.0  0.91510  0.61010  0.86360  1.0000
  C   C56       1.0  0.08490  0.11010  0.63640  1.0000
  H   H101      1.0  0.01390  0.40650  0.14700  1.0000
  H   H102      1.0  0.98610  0.90650  0.35300  1.0000
  H   H103      1.0  0.98610  0.59350  0.85300  1.0000
  H   H104      1.0  0.01390  0.09350  0.64700  1.0000
  H   H105      1.0  0.16120  0.40480  0.15010  1.0000
  H   H106      1.0  0.83880  0.90480  0.34990  1.0000
  H   H107      1.0  0.83880  0.59520  0.84990  1.0000
  H   H108      1.0  0.16120  0.09520  0.65010  1.0000
  C   C57       1.0  0.08240  0.34410  0.15147  1.0000
  C   C58       1.0  0.91760  0.84410  0.34853  1.0000
  C   C59       1.0  0.91760  0.65590  0.84853  1.0000
  C   C60       1.0  0.08240  0.15590  0.65147  1.0000
  O   O137      1.0  0.33360  0.26017  0.18689  1.0000
  O   O138      1.0  0.66640  0.76017  0.31311  1.0000
  O   O139      1.0  0.66640  0.73983  0.81311  1.0000
  O   O140      1.0  0.33360  0.23983  0.68689  1.0000
