data_image0
_chemical_formula_structural       Na3Fe3O36C18H18
_chemical_formula_sum              "Na3 Fe3 O36 C18 H18"
_cell_length_a       8.357
_cell_length_b       8.357
_cell_length_c       23.136
_cell_angle_alpha    90
_cell_angle_beta     90
_cell_angle_gamma    120

_space_group_name_H-M_alt    "P 1"
_space_group_IT_number       1

loop_
  _space_group_symop_operation_xyz
  'x, y, z'

loop_
  _atom_site_type_symbol
  _atom_site_label
  _atom_site_symmetry_multiplicity
  _atom_site_fract_x
  _atom_site_fract_y
  _atom_site_fract_z
  _atom_site_occupancy
  Na  Na1       1.0  0.33330  0.66670  0.66670  1.0000
  Na  Na2       1.0  0.99997  0.00003  0.00003  1.0000
  Na  Na3       1.0  0.66663  0.33337  0.33337  1.0000
  Fe  Fe1       1.0  0.66670  0.33330  0.83330  1.0000
  Fe  Fe2       1.0  0.33337  0.66663  0.16663  1.0000
  Fe  Fe3       1.0  0.00003  0.99997  0.49997  1.0000
  O   O1        1.0  0.46115  0.31750  0.78389  1.0000
  O   O2        1.0  0.68250  0.14365  0.78389  1.0000
  O   O3        1.0  0.85635  0.53885  0.78389  1.0000
  O   O4        1.0  0.12782  0.65083  0.11723  1.0000
  O   O5        1.0  0.34917  0.47698  0.11723  1.0000
  O   O6        1.0  0.52302  0.87218  0.11723  1.0000
  O   O7        1.0  0.79448  0.98417  0.45056  1.0000
  O   O8        1.0  0.01583  0.81032  0.45056  1.0000
  O   O9        1.0  0.18968  0.20552  0.45056  1.0000
  O   O10       1.0  0.53885  0.68250  0.21611  1.0000
  O   O11       1.0  0.31750  0.85635  0.21611  1.0000
  O   O12       1.0  0.14365  0.46115  0.21611  1.0000
  O   O13       1.0  0.87218  0.34917  0.88277  1.0000
  O   O14       1.0  0.65083  0.52302  0.88277  1.0000
  O   O15       1.0  0.47698  0.12782  0.88277  1.0000
  O   O16       1.0  0.20552  0.01583  0.54944  1.0000
  O   O17       1.0  0.98417  0.18968  0.54944  1.0000
  O   O18       1.0  0.81032  0.79448  0.54944  1.0000
  O   O19       1.0  0.32529  0.42806  0.72752  1.0000
  O   O20       1.0  0.57194  0.89723  0.72752  1.0000
  O   O21       1.0  0.10277  0.67471  0.72752  1.0000
  O   O22       1.0  0.99196  0.76139  0.06086  1.0000
  O   O23       1.0  0.23861  0.23056  0.06086  1.0000
  O   O24       1.0  0.76944  0.00804  0.06086  1.0000
  O   O25       1.0  0.65862  0.09473  0.39419  1.0000
  O   O26       1.0  0.90527  0.56390  0.39419  1.0000
  O   O27       1.0  0.43610  0.34138  0.39419  1.0000
  O   O28       1.0  0.67471  0.57194  0.27248  1.0000
  O   O29       1.0  0.42806  0.10277  0.27248  1.0000
  O   O30       1.0  0.89723  0.32529  0.27248  1.0000
  O   O31       1.0  0.00804  0.23861  0.93914  1.0000
  O   O32       1.0  0.76139  0.76944  0.93914  1.0000
  O   O33       1.0  0.23056  0.99196  0.93914  1.0000
  O   O34       1.0  0.34138  0.90527  0.60581  1.0000
  O   O35       1.0  0.09473  0.43610  0.60581  1.0000
  O   O36       1.0  0.56390  0.65862  0.60581  1.0000
  C   C1        1.0  0.45383  0.44576  0.75699  1.0000
  C   C2        1.0  0.55424  0.00807  0.75699  1.0000
  C   C3        1.0  0.99193  0.54617  0.75699  1.0000
  C   C4        1.0  0.12050  0.77909  0.09032  1.0000
  C   C5        1.0  0.22091  0.34140  0.09032  1.0000
  C   C6        1.0  0.65860  0.87950  0.09032  1.0000
  C   C7        1.0  0.78716  0.11243  0.42365  1.0000
  C   C8        1.0  0.88757  0.67474  0.42365  1.0000
  C   C9        1.0  0.32526  0.21284  0.42365  1.0000
  C   C10       1.0  0.54617  0.55424  0.24301  1.0000
  C   C11       1.0  0.44576  0.99193  0.24301  1.0000
  C   C12       1.0  0.00807  0.45383  0.24301  1.0000
  C   C13       1.0  0.87950  0.22091  0.90968  1.0000
  C   C14       1.0  0.77909  0.65860  0.90968  1.0000
  C   C15       1.0  0.34140  0.12050  0.90968  1.0000
  C   C16       1.0  0.21284  0.88757  0.57635  1.0000
  C   C17       1.0  0.11243  0.32526  0.57635  1.0000
  C   C18       1.0  0.67474  0.78716  0.57635  1.0000
  H   H1        1.0  0.55960  0.56870  0.76250  1.0000
  H   H2        1.0  0.43130  0.99090  0.76250  1.0000
  H   H3        1.0  0.00910  0.44040  0.76250  1.0000
  H   H4        1.0  0.22627  0.90203  0.09583  1.0000
  H   H5        1.0  0.09797  0.32423  0.09583  1.0000
  H   H6        1.0  0.67577  0.77373  0.09583  1.0000
  H   H7        1.0  0.89293  0.23537  0.42917  1.0000
  H   H8        1.0  0.76463  0.65757  0.42917  1.0000
  H   H9        1.0  0.34243  0.10707  0.42917  1.0000
  H   H10       1.0  0.44040  0.43130  0.23750  1.0000
  H   H11       1.0  0.56870  0.00910  0.23750  1.0000
  H   H12       1.0  0.99090  0.55960  0.23750  1.0000
  H   H13       1.0  0.77373  0.09797  0.90417  1.0000
  H   H14       1.0  0.90203  0.67577  0.90417  1.0000
  H   H15       1.0  0.32423  0.22627  0.90417  1.0000
  H   H16       1.0  0.10707  0.76463  0.57083  1.0000
  H   H17       1.0  0.23537  0.34243  0.57083  1.0000
  H   H18       1.0  0.65757  0.89293  0.57083  1.0000
