data_image0
_chemical_formula_structural       U8O64C8H8C8H16C8H8C8H16C8H8C8H16C24
_chemical_formula_sum              "U8 O64 C72 H72"
_cell_length_a       14.167
_cell_length_b       18.6643
_cell_length_c       16.8236
_cell_angle_alpha    90
_cell_angle_beta     90
_cell_angle_gamma    90

_space_group_name_H-M_alt    "P 1"
_space_group_IT_number       1

loop_
  _space_group_symop_operation_xyz
  'x, y, z'

loop_
  _atom_site_type_symbol
  _atom_site_label
  _atom_site_symmetry_multiplicity
  _atom_site_fract_x
  _atom_site_fract_y
  _atom_site_fract_z
  _atom_site_occupancy
  U   U1        1.0  0.28622  0.38275  0.09585  1.0000
  U   U2        1.0  0.21378  0.11725  0.59585  1.0000
  U   U3        1.0  0.71378  0.38275  0.40415  1.0000
  U   U4        1.0  0.78622  0.11725  0.90415  1.0000
  U   U5        1.0  0.71378  0.61725  0.90415  1.0000
  U   U6        1.0  0.78622  0.88275  0.40415  1.0000
  U   U7        1.0  0.28622  0.61725  0.59585  1.0000
  U   U8        1.0  0.21378  0.88275  0.09585  1.0000
  O   O1        1.0  0.39159  0.33895  0.06617  1.0000
  O   O2        1.0  0.10841  0.16105  0.56617  1.0000
  O   O3        1.0  0.60841  0.33895  0.43383  1.0000
  O   O4        1.0  0.89159  0.16105  0.93383  1.0000
  O   O5        1.0  0.60841  0.66105  0.93383  1.0000
  O   O6        1.0  0.89159  0.83895  0.43383  1.0000
  O   O7        1.0  0.39159  0.66105  0.56617  1.0000
  O   O8        1.0  0.10841  0.83895  0.06617  1.0000
  O   O9        1.0  0.18120  0.42692  0.12541  1.0000
  O   O10       1.0  0.31880  0.07308  0.62541  1.0000
  O   O11       1.0  0.81880  0.42692  0.37459  1.0000
  O   O12       1.0  0.68120  0.07308  0.87459  1.0000
  O   O13       1.0  0.81880  0.57308  0.87459  1.0000
  O   O14       1.0  0.68120  0.92692  0.37459  1.0000
  O   O15       1.0  0.18120  0.57308  0.62541  1.0000
  O   O16       1.0  0.31880  0.92692  0.12541  1.0000
  O   O17       1.0  0.28897  0.31688  0.22443  1.0000
  O   O18       1.0  0.21103  0.18312  0.72443  1.0000
  O   O19       1.0  0.71103  0.31688  0.27557  1.0000
  O   O20       1.0  0.78897  0.18312  0.77557  1.0000
  O   O21       1.0  0.71103  0.68312  0.77557  1.0000
  O   O22       1.0  0.78897  0.81688  0.27557  1.0000
  O   O23       1.0  0.28897  0.68312  0.72443  1.0000
  O   O24       1.0  0.21103  0.81688  0.22443  1.0000
  O   O25       1.0  0.36750  0.41715  0.21722  1.0000
  O   O26       1.0  0.13250  0.08285  0.71722  1.0000
  O   O27       1.0  0.63250  0.41715  0.28278  1.0000
  O   O28       1.0  0.86750  0.08285  0.78278  1.0000
  O   O29       1.0  0.63250  0.58285  0.78278  1.0000
  O   O30       1.0  0.86750  0.91715  0.28278  1.0000
  O   O31       1.0  0.36750  0.58285  0.71722  1.0000
  O   O32       1.0  0.13250  0.91715  0.21722  1.0000
  O   O33       1.0  0.36080  0.49601  0.58952  1.0000
  O   O34       1.0  0.13920  0.00399  0.08952  1.0000
  O   O35       1.0  0.63920  0.49601  0.91048  1.0000
  O   O36       1.0  0.86080  0.00399  0.41048  1.0000
  O   O37       1.0  0.63920  0.50399  0.41048  1.0000
  O   O38       1.0  0.86080  0.99601  0.91048  1.0000
  O   O39       1.0  0.36080  0.50399  0.08952  1.0000
  O   O40       1.0  0.13920  0.99601  0.58952  1.0000
  O   O41       1.0  0.30190  0.53865  0.47896  1.0000
  O   O42       1.0  0.19810  0.96135  0.97896  1.0000
  O   O43       1.0  0.69810  0.53865  0.02104  1.0000
  O   O44       1.0  0.80190  0.96135  0.52104  1.0000
  O   O45       1.0  0.69810  0.46135  0.52104  1.0000
  O   O46       1.0  0.80190  0.03865  0.02104  1.0000
  O   O47       1.0  0.30190  0.46135  0.97896  1.0000
  O   O48       1.0  0.19810  0.03865  0.47896  1.0000
  O   O49       1.0  0.29331  0.16959  0.47683  1.0000
  O   O50       1.0  0.20669  0.33041  0.97683  1.0000
  O   O51       1.0  0.70669  0.16959  0.02317  1.0000
  O   O52       1.0  0.79331  0.33041  0.52317  1.0000
  O   O53       1.0  0.70669  0.83041  0.52317  1.0000
  O   O54       1.0  0.79331  0.66959  0.02317  1.0000
  O   O55       1.0  0.29331  0.83041  0.97683  1.0000
  O   O56       1.0  0.20669  0.66959  0.47683  1.0000
  O   O57       1.0  0.30070  0.22949  0.58848  1.0000
  O   O58       1.0  0.19930  0.27051  0.08848  1.0000
  O   O59       1.0  0.69930  0.22949  0.91152  1.0000
  O   O60       1.0  0.80070  0.27051  0.41152  1.0000
  O   O61       1.0  0.69930  0.77051  0.41152  1.0000
  O   O62       1.0  0.80070  0.72949  0.91152  1.0000
  O   O63       1.0  0.30070  0.77051  0.08848  1.0000
  O   O64       1.0  0.19930  0.72949  0.58848  1.0000
  C   C1        1.0  0.37630  0.35560  0.34210  1.0000
  C   C2        1.0  0.12370  0.14440  0.84210  1.0000
  C   C3        1.0  0.62370  0.35560  0.15790  1.0000
  C   C4        1.0  0.87630  0.14440  0.65790  1.0000
  C   C5        1.0  0.62370  0.64440  0.65790  1.0000
  C   C6        1.0  0.87630  0.85560  0.15790  1.0000
  C   C7        1.0  0.37630  0.64440  0.84210  1.0000
  C   C8        1.0  0.12370  0.85560  0.34210  1.0000
  H   H1        1.0  0.44670  0.35180  0.34160  1.0000
  H   H2        1.0  0.05330  0.14820  0.84160  1.0000
  H   H3        1.0  0.55330  0.35180  0.15840  1.0000
  H   H4        1.0  0.94670  0.14820  0.65840  1.0000
  H   H5        1.0  0.55330  0.64820  0.65840  1.0000
  H   H6        1.0  0.94670  0.85180  0.15840  1.0000
  H   H7        1.0  0.44670  0.64820  0.84160  1.0000
  H   H8        1.0  0.05330  0.85180  0.34160  1.0000
  C   C9        1.0  0.34860  0.42490  0.38540  1.0000
  C   C10       1.0  0.15140  0.07510  0.88540  1.0000
  C   C11       1.0  0.65140  0.42490  0.11460  1.0000
  C   C12       1.0  0.84860  0.07510  0.61460  1.0000
  C   C13       1.0  0.65140  0.57510  0.61460  1.0000
  C   C14       1.0  0.84860  0.92490  0.11460  1.0000
  C   C15       1.0  0.34860  0.57510  0.88540  1.0000
  C   C16       1.0  0.15140  0.92490  0.38540  1.0000
  H   H9        1.0  0.37980  0.46620  0.35950  1.0000
  H   H10       1.0  0.12020  0.03380  0.85950  1.0000
  H   H11       1.0  0.62020  0.46620  0.14050  1.0000
  H   H12       1.0  0.87980  0.03380  0.64050  1.0000
  H   H13       1.0  0.62020  0.53380  0.64050  1.0000
  H   H14       1.0  0.87980  0.96620  0.14050  1.0000
  H   H15       1.0  0.37980  0.53380  0.85950  1.0000
  H   H16       1.0  0.12020  0.96620  0.35950  1.0000
  H   H17       1.0  0.27950  0.43190  0.38140  1.0000
  H   H18       1.0  0.22050  0.06810  0.88140  1.0000
  H   H19       1.0  0.72050  0.43190  0.11860  1.0000
  H   H20       1.0  0.77950  0.06810  0.61860  1.0000
  H   H21       1.0  0.72050  0.56810  0.61860  1.0000
  H   H22       1.0  0.77950  0.93190  0.11860  1.0000
  H   H23       1.0  0.27950  0.56810  0.88140  1.0000
  H   H24       1.0  0.22050  0.93190  0.38140  1.0000
  C   C17       1.0  0.37710  0.42230  0.47290  1.0000
  C   C18       1.0  0.12290  0.07770  0.97290  1.0000
  C   C19       1.0  0.62290  0.42230  0.02710  1.0000
  C   C20       1.0  0.87710  0.07770  0.52710  1.0000
  C   C21       1.0  0.62290  0.57770  0.52710  1.0000
  C   C22       1.0  0.87710  0.92230  0.02710  1.0000
  C   C23       1.0  0.37710  0.57770  0.97290  1.0000
  C   C24       1.0  0.12290  0.92230  0.47290  1.0000
  H   H25       1.0  0.44740  0.41920  0.47630  1.0000
  H   H26       1.0  0.05260  0.08080  0.97630  1.0000
  H   H27       1.0  0.55260  0.41920  0.02370  1.0000
  H   H28       1.0  0.94740  0.08080  0.52370  1.0000
  H   H29       1.0  0.55260  0.58080  0.52370  1.0000
  H   H30       1.0  0.94740  0.91920  0.02370  1.0000
  H   H31       1.0  0.44740  0.58080  0.97630  1.0000
  H   H32       1.0  0.05260  0.91920  0.47630  1.0000
  C   C25       1.0  0.33460  0.35700  0.51410  1.0000
  C   C26       1.0  0.16540  0.14300  0.01410  1.0000
  C   C27       1.0  0.66540  0.35700  0.98590  1.0000
  C   C28       1.0  0.83460  0.14300  0.48590  1.0000
  C   C29       1.0  0.66540  0.64300  0.48590  1.0000
  C   C30       1.0  0.83460  0.85700  0.98590  1.0000
  C   C31       1.0  0.33460  0.64300  0.01410  1.0000
  C   C32       1.0  0.16540  0.85700  0.51410  1.0000
  H   H33       1.0  0.35700  0.35500  0.56980  1.0000
  H   H34       1.0  0.14300  0.14500  0.06980  1.0000
  H   H35       1.0  0.64300  0.35500  0.93020  1.0000
  H   H36       1.0  0.85700  0.14500  0.43020  1.0000
  H   H37       1.0  0.64300  0.64500  0.43020  1.0000
  H   H38       1.0  0.85700  0.85500  0.93020  1.0000
  H   H39       1.0  0.35700  0.64500  0.06980  1.0000
  H   H40       1.0  0.14300  0.85500  0.56980  1.0000
  H   H41       1.0  0.26490  0.36140  0.51490  1.0000
  H   H42       1.0  0.23510  0.13860  0.01490  1.0000
  H   H43       1.0  0.73510  0.36140  0.98510  1.0000
  H   H44       1.0  0.76490  0.13860  0.48510  1.0000
  H   H45       1.0  0.73510  0.63860  0.48510  1.0000
  H   H46       1.0  0.76490  0.86140  0.98510  1.0000
  H   H47       1.0  0.26490  0.63860  0.01490  1.0000
  H   H48       1.0  0.23510  0.86140  0.51490  1.0000
  C   C33       1.0  0.36230  0.28807  0.47140  1.0000
  C   C34       1.0  0.13770  0.21193  0.97140  1.0000
  C   C35       1.0  0.63770  0.28807  0.02860  1.0000
  C   C36       1.0  0.86230  0.21193  0.52860  1.0000
  C   C37       1.0  0.63770  0.71193  0.52860  1.0000
  C   C38       1.0  0.86230  0.78807  0.02860  1.0000
  C   C39       1.0  0.36230  0.71193  0.97140  1.0000
  C   C40       1.0  0.13770  0.78807  0.47140  1.0000
  H   H49       1.0  0.43230  0.28250  0.47550  1.0000
  H   H50       1.0  0.06770  0.21750  0.97550  1.0000
  H   H51       1.0  0.56770  0.28250  0.02450  1.0000
  H   H52       1.0  0.93230  0.21750  0.52450  1.0000
  H   H53       1.0  0.56770  0.71750  0.52450  1.0000
  H   H54       1.0  0.93230  0.78250  0.02450  1.0000
  H   H55       1.0  0.43230  0.71750  0.97550  1.0000
  H   H56       1.0  0.06770  0.78250  0.47550  1.0000
  C   C41       1.0  0.33630  0.28930  0.38340  1.0000
  C   C42       1.0  0.16370  0.21070  0.88340  1.0000
  C   C43       1.0  0.66370  0.28930  0.11660  1.0000
  C   C44       1.0  0.83630  0.21070  0.61660  1.0000
  C   C45       1.0  0.66370  0.71070  0.61660  1.0000
  C   C46       1.0  0.83630  0.78930  0.11660  1.0000
  C   C47       1.0  0.33630  0.71070  0.88340  1.0000
  C   C48       1.0  0.16370  0.78930  0.38340  1.0000
  H   H57       1.0  0.26670  0.28900  0.37790  1.0000
  H   H58       1.0  0.23330  0.21100  0.87790  1.0000
  H   H59       1.0  0.73330  0.28900  0.12210  1.0000
  H   H60       1.0  0.76670  0.21100  0.62210  1.0000
  H   H61       1.0  0.73330  0.71100  0.62210  1.0000
  H   H62       1.0  0.76670  0.78900  0.12210  1.0000
  H   H63       1.0  0.26670  0.71100  0.87790  1.0000
  H   H64       1.0  0.23330  0.78900  0.37790  1.0000
  H   H65       1.0  0.36120  0.24570  0.35730  1.0000
  H   H66       1.0  0.13880  0.25430  0.85730  1.0000
  H   H67       1.0  0.63880  0.24570  0.14270  1.0000
  H   H68       1.0  0.86120  0.25430  0.64270  1.0000
  H   H69       1.0  0.63880  0.75430  0.64270  1.0000
  H   H70       1.0  0.86120  0.74570  0.14270  1.0000
  H   H71       1.0  0.36120  0.75430  0.85730  1.0000
  H   H72       1.0  0.13880  0.74570  0.35730  1.0000
  C   C49       1.0  0.34240  0.36206  0.25820  1.0000
  C   C50       1.0  0.15760  0.13794  0.75820  1.0000
  C   C51       1.0  0.65760  0.36206  0.24180  1.0000
  C   C52       1.0  0.84240  0.13794  0.74180  1.0000
  C   C53       1.0  0.65760  0.63794  0.74180  1.0000
  C   C54       1.0  0.84240  0.86206  0.24180  1.0000
  C   C55       1.0  0.34240  0.63794  0.75820  1.0000
  C   C56       1.0  0.15760  0.86206  0.25820  1.0000
  C   C57       1.0  0.34500  0.48929  0.51630  1.0000
  C   C58       1.0  0.15500  0.01071  0.01630  1.0000
  C   C59       1.0  0.65500  0.48929  0.98370  1.0000
  C   C60       1.0  0.84500  0.01071  0.48370  1.0000
  C   C61       1.0  0.65500  0.51071  0.48370  1.0000
  C   C62       1.0  0.84500  0.98929  0.98370  1.0000
  C   C63       1.0  0.34500  0.51071  0.01630  1.0000
  C   C64       1.0  0.15500  0.98929  0.51630  1.0000
  C   C65       1.0  0.31650  0.22540  0.51450  1.0000
  C   C66       1.0  0.18350  0.27460  0.01450  1.0000
  C   C67       1.0  0.68350  0.22540  0.98550  1.0000
  C   C68       1.0  0.81650  0.27460  0.48550  1.0000
  C   C69       1.0  0.68350  0.77460  0.48550  1.0000
  C   C70       1.0  0.81650  0.72540  0.98550  1.0000
  C   C71       1.0  0.31650  0.77460  0.01450  1.0000
  C   C72       1.0  0.18350  0.72540  0.51450  1.0000
