data_image0
_chemical_formula_structural       U8O64C4H4C4H8C4H4C4H8C4H4C4H8C16H4C4H8C4H4C4H8C4H4C4H8C12
_chemical_formula_sum              "U8 O64 C72 H72"
_cell_length_a       15.258
_cell_length_b       18.0513
_cell_length_c       16.9899
_cell_angle_alpha    90
_cell_angle_beta     95.344
_cell_angle_gamma    90

_space_group_name_H-M_alt    "P 1"
_space_group_IT_number       1

loop_
  _space_group_symop_operation_xyz
  'x, y, z'

loop_
  _atom_site_type_symbol
  _atom_site_label
  _atom_site_symmetry_multiplicity
  _atom_site_fract_x
  _atom_site_fract_y
  _atom_site_fract_z
  _atom_site_occupancy
  U   U1        1.0  0.67578  0.63324  0.90294  1.0000
  U   U2        1.0  0.32422  0.63324  0.59706  1.0000
  U   U3        1.0  0.32422  0.36676  0.09706  1.0000
  U   U4        1.0  0.67578  0.36676  0.40294  1.0000
  U   U5        1.0  0.84032  0.14243  0.91190  1.0000
  U   U6        1.0  0.15968  0.14243  0.58810  1.0000
  U   U7        1.0  0.15968  0.85757  0.08810  1.0000
  U   U8        1.0  0.84032  0.85757  0.41190  1.0000
  O   O1        1.0  0.57930  0.68940  0.89960  1.0000
  O   O2        1.0  0.42070  0.68940  0.60040  1.0000
  O   O3        1.0  0.42070  0.31060  0.10040  1.0000
  O   O4        1.0  0.57930  0.31060  0.39960  1.0000
  O   O5        1.0  0.77320  0.57980  0.90890  1.0000
  O   O6        1.0  0.22680  0.57980  0.59110  1.0000
  O   O7        1.0  0.22680  0.42020  0.09110  1.0000
  O   O8        1.0  0.77320  0.42020  0.40890  1.0000
  O   O9        1.0  0.73750  0.10460  0.87720  1.0000
  O   O10       1.0  0.26250  0.10460  0.62280  1.0000
  O   O11       1.0  0.26250  0.89540  0.12280  1.0000
  O   O12       1.0  0.73750  0.89540  0.37720  1.0000
  O   O13       1.0  0.94410  0.18010  0.94610  1.0000
  O   O14       1.0  0.05590  0.18010  0.55390  1.0000
  O   O15       1.0  0.05590  0.81990  0.05390  1.0000
  O   O16       1.0  0.94410  0.81990  0.44610  1.0000
  O   O17       1.0  0.63920  0.56730  0.02140  1.0000
  O   O18       1.0  0.36080  0.56730  0.47860  1.0000
  O   O19       1.0  0.36080  0.43270  0.97860  1.0000
  O   O20       1.0  0.63920  0.43270  0.52140  1.0000
  O   O21       1.0  0.59290  0.51700  0.90830  1.0000
  O   O22       1.0  0.40710  0.51700  0.59170  1.0000
  O   O23       1.0  0.40710  0.48300  0.09170  1.0000
  O   O24       1.0  0.59290  0.48300  0.40830  1.0000
  O   O25       1.0  0.76430  0.26570  0.91110  1.0000
  O   O26       1.0  0.23570  0.26570  0.58890  1.0000
  O   O27       1.0  0.23570  0.73430  0.08890  1.0000
  O   O28       1.0  0.76430  0.73430  0.41110  1.0000
  O   O29       1.0  0.77370  0.20130  0.02010  1.0000
  O   O30       1.0  0.22630  0.20130  0.47990  1.0000
  O   O31       1.0  0.22630  0.79870  0.97990  1.0000
  O   O32       1.0  0.77370  0.79870  0.52010  1.0000
  O   O33       1.0  0.62140  0.41500  0.27320  1.0000
  O   O34       1.0  0.37860  0.41500  0.22680  1.0000
  O   O35       1.0  0.37860  0.58500  0.72680  1.0000
  O   O36       1.0  0.62140  0.58500  0.77320  1.0000
  O   O37       1.0  0.71560  0.32240  0.27170  1.0000
  O   O38       1.0  0.28440  0.32240  0.22830  1.0000
  O   O39       1.0  0.28440  0.67760  0.72830  1.0000
  O   O40       1.0  0.71560  0.67760  0.77170  1.0000
  O   O41       1.0  0.76310  0.74720  0.91150  1.0000
  O   O42       1.0  0.23690  0.74720  0.58850  1.0000
  O   O43       1.0  0.23690  0.25280  0.08850  1.0000
  O   O44       1.0  0.76310  0.25280  0.41150  1.0000
  O   O45       1.0  0.73600  0.69680  0.02410  1.0000
  O   O46       1.0  0.26400  0.69680  0.47590  1.0000
  O   O47       1.0  0.26400  0.30320  0.97590  1.0000
  O   O48       1.0  0.73600  0.30320  0.52410  1.0000
  O   O49       1.0  0.83790  0.06360  0.03180  1.0000
  O   O50       1.0  0.16210  0.06360  0.46820  1.0000
  O   O51       1.0  0.16210  0.93640  0.96820  1.0000
  O   O52       1.0  0.83790  0.93640  0.53180  1.0000
  O   O53       1.0  0.90160  0.01790  0.93240  1.0000
  O   O54       1.0  0.09840  0.01790  0.56760  1.0000
  O   O55       1.0  0.09840  0.98210  0.06760  1.0000
  O   O56       1.0  0.90160  0.98210  0.43240  1.0000
  O   O57       1.0  0.89160  0.91450  0.29190  1.0000
  O   O58       1.0  0.10840  0.91450  0.20810  1.0000
  O   O59       1.0  0.10840  0.08550  0.70810  1.0000
  O   O60       1.0  0.89160  0.08550  0.79190  1.0000
  O   O61       1.0  0.85240  0.79690  0.28340  1.0000
  O   O62       1.0  0.14760  0.79690  0.21660  1.0000
  O   O63       1.0  0.14760  0.20310  0.71660  1.0000
  O   O64       1.0  0.85240  0.20310  0.78340  1.0000
  C   C1        1.0  0.61010  0.43420  0.02010  1.0000
  C   C2        1.0  0.38990  0.43420  0.47990  1.0000
  C   C3        1.0  0.38990  0.56580  0.97990  1.0000
  C   C4        1.0  0.61010  0.56580  0.52010  1.0000
  H   H1        1.0  0.54950  0.41320  0.00920  1.0000
  H   H2        1.0  0.45050  0.41320  0.49080  1.0000
  H   H3        1.0  0.45050  0.58680  0.99080  1.0000
  H   H4        1.0  0.54950  0.58680  0.50920  1.0000
  C   C5        1.0  0.67490  0.38450  0.98110  1.0000
  C   C6        1.0  0.32510  0.38450  0.51890  1.0000
  C   C7        1.0  0.32510  0.61550  0.01890  1.0000
  C   C8        1.0  0.67490  0.61550  0.48110  1.0000
  H   H5        1.0  0.65550  0.37920  0.92410  1.0000
  H   H6        1.0  0.34450  0.37920  0.57590  1.0000
  H   H7        1.0  0.34450  0.62080  0.07590  1.0000
  H   H8        1.0  0.65550  0.62080  0.42410  1.0000
  H   H9        1.0  0.73390  0.40790  0.98590  1.0000
  H   H10       1.0  0.26610  0.40790  0.51410  1.0000
  H   H11       1.0  0.26610  0.59210  0.01410  1.0000
  H   H12       1.0  0.73390  0.59210  0.48590  1.0000
  C   C9        1.0  0.68090  0.30930  0.01890  1.0000
  C   C10       1.0  0.31910  0.30930  0.48110  1.0000
  C   C11       1.0  0.31910  0.69070  0.98110  1.0000
  C   C12       1.0  0.68090  0.69070  0.51890  1.0000
  H   H13       1.0  0.62090  0.28650  0.01110  1.0000
  H   H14       1.0  0.37910  0.28650  0.48890  1.0000
  H   H15       1.0  0.37910  0.71350  0.98890  1.0000
  H   H16       1.0  0.62090  0.71350  0.51110  1.0000
  C   C13       1.0  0.70690  0.31290  0.10800  1.0000
  C   C14       1.0  0.29310  0.31290  0.39200  1.0000
  C   C15       1.0  0.29310  0.68710  0.89200  1.0000
  C   C16       1.0  0.70690  0.68710  0.60800  1.0000
  H   H17       1.0  0.76710  0.33340  0.11810  1.0000
  H   H18       1.0  0.23290  0.33340  0.38190  1.0000
  H   H19       1.0  0.23290  0.66660  0.88190  1.0000
  H   H20       1.0  0.76710  0.66660  0.61810  1.0000
  H   H21       1.0  0.70670  0.26240  0.13080  1.0000
  H   H22       1.0  0.29330  0.26240  0.36920  1.0000
  H   H23       1.0  0.29330  0.73760  0.86920  1.0000
  H   H24       1.0  0.70670  0.73760  0.63080  1.0000
  C   C17       1.0  0.64140  0.36230  0.14720  1.0000
  C   C18       1.0  0.35860  0.36230  0.35280  1.0000
  C   C19       1.0  0.35860  0.63770  0.85280  1.0000
  C   C20       1.0  0.64140  0.63770  0.64720  1.0000
  H   H25       1.0  0.58250  0.33780  0.13840  1.0000
  H   H26       1.0  0.41750  0.33780  0.36160  1.0000
  H   H27       1.0  0.41750  0.66220  0.86160  1.0000
  H   H28       1.0  0.58250  0.66220  0.63840  1.0000
  C   C21       1.0  0.63200  0.43950  0.10940  1.0000
  C   C22       1.0  0.36800  0.43950  0.39060  1.0000
  C   C23       1.0  0.36800  0.56050  0.89060  1.0000
  C   C24       1.0  0.63200  0.56050  0.60940  1.0000
  H   H29       1.0  0.58480  0.46720  0.13290  1.0000
  H   H30       1.0  0.41520  0.46720  0.36710  1.0000
  H   H31       1.0  0.41520  0.53280  0.86710  1.0000
  H   H32       1.0  0.58480  0.53280  0.63290  1.0000
  H   H33       1.0  0.68770  0.46730  0.12090  1.0000
  H   H34       1.0  0.31230  0.46730  0.37910  1.0000
  H   H35       1.0  0.31230  0.53270  0.87910  1.0000
  H   H36       1.0  0.68770  0.53270  0.62090  1.0000
  C   C25       1.0  0.61230  0.51040  0.98170  1.0000
  C   C26       1.0  0.38770  0.51040  0.51830  1.0000
  C   C27       1.0  0.38770  0.48960  0.01830  1.0000
  C   C28       1.0  0.61230  0.48960  0.48170  1.0000
  C   C29       1.0  0.74440  0.25700  0.98090  1.0000
  C   C30       1.0  0.25560  0.25700  0.51910  1.0000
  C   C31       1.0  0.25560  0.74300  0.01910  1.0000
  C   C32       1.0  0.74440  0.74300  0.48090  1.0000
  C   C33       1.0  0.66310  0.36790  0.23490  1.0000
  C   C34       1.0  0.33690  0.36790  0.26510  1.0000
  C   C35       1.0  0.33690  0.63210  0.76510  1.0000
  C   C36       1.0  0.66310  0.63210  0.73490  1.0000
  C   C37       1.0  0.82870  0.80450  0.03040  1.0000
  C   C38       1.0  0.17130  0.80450  0.46960  1.0000
  C   C39       1.0  0.17130  0.19550  0.96960  1.0000
  C   C40       1.0  0.82870  0.19550  0.53040  1.0000
  H   H37       1.0  0.89110  0.79090  0.02350  1.0000
  H   H38       1.0  0.10890  0.79090  0.47650  1.0000
  H   H39       1.0  0.10890  0.20910  0.97650  1.0000
  H   H40       1.0  0.89110  0.20910  0.52350  1.0000
  C   C41       1.0  0.81500  0.88130  0.99660  1.0000
  C   C42       1.0  0.18500  0.88130  0.50340  1.0000
  C   C43       1.0  0.18500  0.11870  0.00340  1.0000
  C   C44       1.0  0.81500  0.11870  0.49660  1.0000
  H   H41       1.0  0.75440  0.89830  0.00340  1.0000
  H   H42       1.0  0.24560  0.89830  0.49660  1.0000
  H   H43       1.0  0.24560  0.10170  0.99660  1.0000
  H   H44       1.0  0.75440  0.10170  0.50340  1.0000
  H   H45       1.0  0.82240  0.88060  0.93930  1.0000
  H   H46       1.0  0.17760  0.88060  0.56070  1.0000
  H   H47       1.0  0.17760  0.11940  0.06070  1.0000
  H   H48       1.0  0.82240  0.11940  0.43930  1.0000
  C   C45       1.0  0.88200  0.93480  0.03920  1.0000
  C   C46       1.0  0.11800  0.93480  0.46080  1.0000
  C   C47       1.0  0.11800  0.06520  0.96080  1.0000
  C   C48       1.0  0.88200  0.06520  0.53920  1.0000
  H   H49       1.0  0.94220  0.91560  0.03180  1.0000
  H   H50       1.0  0.05780  0.91560  0.46820  1.0000
  H   H51       1.0  0.05780  0.08440  0.96820  1.0000
  H   H52       1.0  0.94220  0.08440  0.53180  1.0000
  C   C49       1.0  0.87270  0.93630  0.12790  1.0000
  C   C50       1.0  0.12730  0.93630  0.37210  1.0000
  C   C51       1.0  0.12730  0.06370  0.87210  1.0000
  C   C52       1.0  0.87270  0.06370  0.62790  1.0000
  H   H53       1.0  0.81380  0.95560  0.13730  1.0000
  H   H54       1.0  0.18620  0.95560  0.36270  1.0000
  H   H55       1.0  0.18620  0.04440  0.86270  1.0000
  H   H56       1.0  0.81380  0.04440  0.63730  1.0000
  H   H57       1.0  0.91750  0.96990  0.15440  1.0000
  H   H58       1.0  0.08250  0.96990  0.34560  1.0000
  H   H59       1.0  0.08250  0.03010  0.84560  1.0000
  H   H60       1.0  0.91750  0.03010  0.65440  1.0000
  C   C53       1.0  0.88450  0.85780  0.16340  1.0000
  C   C54       1.0  0.11550  0.85780  0.33660  1.0000
  C   C55       1.0  0.11550  0.14220  0.83660  1.0000
  C   C56       1.0  0.88450  0.14220  0.66340  1.0000
  H   H61       1.0  0.94570  0.84090  0.15680  1.0000
  H   H62       1.0  0.05430  0.84090  0.34320  1.0000
  H   H63       1.0  0.05430  0.15910  0.84320  1.0000
  H   H64       1.0  0.94570  0.15910  0.65680  1.0000
  C   C57       1.0  0.82030  0.80340  0.12020  1.0000
  C   C58       1.0  0.17970  0.80340  0.37980  1.0000
  C   C59       1.0  0.17970  0.19660  0.87980  1.0000
  C   C60       1.0  0.82030  0.19660  0.62020  1.0000
  H   H65       1.0  0.75940  0.81660  0.13020  1.0000
  H   H66       1.0  0.24060  0.81660  0.36980  1.0000
  H   H67       1.0  0.24060  0.18340  0.86980  1.0000
  H   H68       1.0  0.75940  0.18340  0.63020  1.0000
  H   H69       1.0  0.83250  0.75280  0.14090  1.0000
  H   H70       1.0  0.16750  0.75280  0.35910  1.0000
  H   H71       1.0  0.16750  0.24720  0.85910  1.0000
  H   H72       1.0  0.83250  0.24720  0.64090  1.0000
  C   C61       1.0  0.77200  0.74620  0.98670  1.0000
  C   C62       1.0  0.22800  0.74620  0.51330  1.0000
  C   C63       1.0  0.22800  0.25380  0.01330  1.0000
  C   C64       1.0  0.77200  0.25380  0.48670  1.0000
  C   C65       1.0  0.87370  0.01000  0.00130  1.0000
  C   C66       1.0  0.12630  0.01000  0.49870  1.0000
  C   C67       1.0  0.12630  0.99000  0.99870  1.0000
  C   C68       1.0  0.87370  0.99000  0.50130  1.0000
  C   C69       1.0  0.87190  0.85700  0.25090  1.0000
  C   C70       1.0  0.12810  0.85700  0.24910  1.0000
  C   C71       1.0  0.12810  0.14300  0.74910  1.0000
  C   C72       1.0  0.87190  0.14300  0.75090  1.0000
