data_image0
_chemical_formula_structural       U8O64C8H8C8H16C8H8C8H16C8H8C8H16C24
_chemical_formula_sum              "U8 O64 C72 H72"
_cell_length_a       14.881
_cell_length_b       18.0065
_cell_length_c       17.2267
_cell_angle_alpha    90
_cell_angle_beta     90
_cell_angle_gamma    90

_space_group_name_H-M_alt    "P 1"
_space_group_IT_number       1

loop_
  _space_group_symop_operation_xyz
  'x, y, z'

loop_
  _atom_site_type_symbol
  _atom_site_label
  _atom_site_symmetry_multiplicity
  _atom_site_fract_x
  _atom_site_fract_y
  _atom_site_fract_z
  _atom_site_occupancy
  U   U1        1.0  0.31952  0.86803  0.56689  1.0000
  U   U2        1.0  0.18048  0.63197  0.06689  1.0000
  U   U3        1.0  0.68048  0.86803  0.93311  1.0000
  U   U4        1.0  0.81952  0.63197  0.43311  1.0000
  U   U5        1.0  0.68048  0.13197  0.43311  1.0000
  U   U6        1.0  0.81952  0.36803  0.93311  1.0000
  U   U7        1.0  0.31952  0.13197  0.06689  1.0000
  U   U8        1.0  0.18048  0.36803  0.56689  1.0000
  O   O1        1.0  0.42290  0.81930  0.56410  1.0000
  O   O2        1.0  0.07710  0.68070  0.06410  1.0000
  O   O3        1.0  0.57710  0.81930  0.93590  1.0000
  O   O4        1.0  0.92290  0.68070  0.43590  1.0000
  O   O5        1.0  0.57710  0.18070  0.43590  1.0000
  O   O6        1.0  0.92290  0.31930  0.93590  1.0000
  O   O7        1.0  0.42290  0.18070  0.06410  1.0000
  O   O8        1.0  0.07710  0.31930  0.56410  1.0000
  O   O9        1.0  0.21570  0.91550  0.56700  1.0000
  O   O10       1.0  0.28430  0.58450  0.06700  1.0000
  O   O11       1.0  0.78430  0.91550  0.93300  1.0000
  O   O12       1.0  0.71570  0.58450  0.43300  1.0000
  O   O13       1.0  0.78430  0.08450  0.43300  1.0000
  O   O14       1.0  0.71570  0.41550  0.93300  1.0000
  O   O15       1.0  0.21570  0.08450  0.06700  1.0000
  O   O16       1.0  0.28430  0.41550  0.56700  1.0000
  O   O17       1.0  0.23850  0.74950  0.55990  1.0000
  O   O18       1.0  0.26150  0.75050  0.05990  1.0000
  O   O19       1.0  0.76150  0.74950  0.94010  1.0000
  O   O20       1.0  0.73850  0.75050  0.44010  1.0000
  O   O21       1.0  0.76150  0.25050  0.44010  1.0000
  O   O22       1.0  0.73850  0.24950  0.94010  1.0000
  O   O23       1.0  0.23850  0.25050  0.05990  1.0000
  O   O24       1.0  0.26150  0.24950  0.55990  1.0000
  O   O25       1.0  0.26900  0.80250  0.44990  1.0000
  O   O26       1.0  0.23100  0.69750  0.94990  1.0000
  O   O27       1.0  0.73100  0.80250  0.05010  1.0000
  O   O28       1.0  0.76900  0.69750  0.55010  1.0000
  O   O29       1.0  0.73100  0.19750  0.55010  1.0000
  O   O30       1.0  0.76900  0.30250  0.05010  1.0000
  O   O31       1.0  0.26900  0.19750  0.94990  1.0000
  O   O32       1.0  0.23100  0.30250  0.44990  1.0000
  O   O33       1.0  0.21490  0.67660  0.19950  1.0000
  O   O34       1.0  0.28510  0.82340  0.69950  1.0000
  O   O35       1.0  0.78510  0.67660  0.30050  1.0000
  O   O36       1.0  0.71490  0.82340  0.80050  1.0000
  O   O37       1.0  0.78510  0.32340  0.80050  1.0000
  O   O38       1.0  0.71490  0.17660  0.30050  1.0000
  O   O39       1.0  0.21490  0.32340  0.69950  1.0000
  O   O40       1.0  0.28510  0.17660  0.19950  1.0000
  O   O41       1.0  0.13060  0.57720  0.19050  1.0000
  O   O42       1.0  0.36940  0.92280  0.69050  1.0000
  O   O43       1.0  0.86940  0.57720  0.30950  1.0000
  O   O44       1.0  0.63060  0.92280  0.80950  1.0000
  O   O45       1.0  0.86940  0.42280  0.80950  1.0000
  O   O46       1.0  0.63060  0.07720  0.30950  1.0000
  O   O47       1.0  0.13060  0.42280  0.69050  1.0000
  O   O48       1.0  0.36940  0.07720  0.19050  1.0000
  O   O49       1.0  0.10710  0.48890  0.55310  1.0000
  O   O50       1.0  0.39290  0.01110  0.05310  1.0000
  O   O51       1.0  0.89290  0.48890  0.94690  1.0000
  O   O52       1.0  0.60710  0.01110  0.44690  1.0000
  O   O53       1.0  0.89290  0.51110  0.44690  1.0000
  O   O54       1.0  0.60710  0.98890  0.94690  1.0000
  O   O55       1.0  0.10710  0.51110  0.05310  1.0000
  O   O56       1.0  0.39290  0.98890  0.55310  1.0000
  O   O57       1.0  0.14860  0.43580  0.44550  1.0000
  O   O58       1.0  0.35140  0.06420  0.94550  1.0000
  O   O59       1.0  0.85140  0.43580  0.05450  1.0000
  O   O60       1.0  0.64860  0.06420  0.55450  1.0000
  O   O61       1.0  0.85140  0.56420  0.55450  1.0000
  O   O62       1.0  0.64860  0.93580  0.05450  1.0000
  O   O63       1.0  0.14860  0.56420  0.94550  1.0000
  O   O64       1.0  0.35140  0.93580  0.44550  1.0000
  C   C1        1.0  0.17650  0.69340  0.44500  1.0000
  C   C2        1.0  0.32350  0.80660  0.94500  1.0000
  C   C3        1.0  0.82350  0.69340  0.05500  1.0000
  C   C4        1.0  0.67650  0.80660  0.55500  1.0000
  C   C5        1.0  0.82350  0.30660  0.55500  1.0000
  C   C6        1.0  0.67650  0.19340  0.05500  1.0000
  C   C7        1.0  0.17650  0.30660  0.94500  1.0000
  C   C8        1.0  0.32350  0.19340  0.44500  1.0000
  H   H1        1.0  0.11380  0.71340  0.44520  1.0000
  H   H2        1.0  0.38620  0.78660  0.94520  1.0000
  H   H3        1.0  0.88620  0.71340  0.05480  1.0000
  H   H4        1.0  0.61380  0.78660  0.55480  1.0000
  H   H5        1.0  0.88620  0.28660  0.55480  1.0000
  H   H6        1.0  0.61380  0.21340  0.05480  1.0000
  H   H7        1.0  0.11380  0.28660  0.94520  1.0000
  H   H8        1.0  0.38620  0.21340  0.44520  1.0000
  C   C9        1.0  0.20300  0.68770  0.35950  1.0000
  C   C10       1.0  0.29700  0.81230  0.85950  1.0000
  C   C11       1.0  0.79700  0.68770  0.14050  1.0000
  C   C12       1.0  0.70300  0.81230  0.64050  1.0000
  C   C13       1.0  0.79700  0.31230  0.64050  1.0000
  C   C14       1.0  0.70300  0.18770  0.14050  1.0000
  C   C15       1.0  0.20300  0.31230  0.85950  1.0000
  C   C16       1.0  0.29700  0.18770  0.35950  1.0000
  H   H9        1.0  0.19880  0.73720  0.33490  1.0000
  H   H10       1.0  0.30120  0.76280  0.83490  1.0000
  H   H11       1.0  0.80120  0.73720  0.16510  1.0000
  H   H12       1.0  0.69880  0.76280  0.66510  1.0000
  H   H13       1.0  0.80120  0.26280  0.66510  1.0000
  H   H14       1.0  0.69880  0.23720  0.16510  1.0000
  H   H15       1.0  0.19880  0.26280  0.83490  1.0000
  H   H16       1.0  0.30120  0.23720  0.33490  1.0000
  H   H17       1.0  0.26590  0.67030  0.35530  1.0000
  H   H18       1.0  0.23410  0.82970  0.85530  1.0000
  H   H19       1.0  0.73410  0.67030  0.14470  1.0000
  H   H20       1.0  0.76590  0.82970  0.64470  1.0000
  H   H21       1.0  0.73410  0.32970  0.64470  1.0000
  H   H22       1.0  0.76590  0.17030  0.14470  1.0000
  H   H23       1.0  0.26590  0.32970  0.85530  1.0000
  H   H24       1.0  0.23410  0.17030  0.35530  1.0000
  C   C17       1.0  0.14130  0.63390  0.31810  1.0000
  C   C18       1.0  0.35870  0.86610  0.81810  1.0000
  C   C19       1.0  0.85870  0.63390  0.18190  1.0000
  C   C20       1.0  0.64130  0.86610  0.68190  1.0000
  C   C21       1.0  0.85870  0.36610  0.68190  1.0000
  C   C22       1.0  0.64130  0.13390  0.18190  1.0000
  C   C23       1.0  0.14130  0.36610  0.81810  1.0000
  C   C24       1.0  0.35870  0.13390  0.31810  1.0000
  H   H25       1.0  0.08000  0.65660  0.32050  1.0000
  H   H26       1.0  0.42000  0.84340  0.82050  1.0000
  H   H27       1.0  0.92000  0.65660  0.17950  1.0000
  H   H28       1.0  0.58000  0.84340  0.67950  1.0000
  H   H29       1.0  0.92000  0.34340  0.67950  1.0000
  H   H30       1.0  0.58000  0.15660  0.17950  1.0000
  H   H31       1.0  0.08000  0.34340  0.82050  1.0000
  H   H32       1.0  0.42000  0.15660  0.32050  1.0000
  C   C25       1.0  0.13330  0.56160  0.35450  1.0000
  C   C26       1.0  0.36670  0.93840  0.85450  1.0000
  C   C27       1.0  0.86670  0.56160  0.14550  1.0000
  C   C28       1.0  0.63330  0.93840  0.64550  1.0000
  C   C29       1.0  0.86670  0.43840  0.64550  1.0000
  C   C30       1.0  0.63330  0.06160  0.14550  1.0000
  C   C31       1.0  0.13330  0.43840  0.85450  1.0000
  C   C32       1.0  0.36670  0.06160  0.35450  1.0000
  H   H33       1.0  0.19060  0.53440  0.34800  1.0000
  H   H34       1.0  0.30940  0.96560  0.84800  1.0000
  H   H35       1.0  0.80940  0.53440  0.15200  1.0000
  H   H36       1.0  0.69060  0.96560  0.65200  1.0000
  H   H37       1.0  0.80940  0.46560  0.65200  1.0000
  H   H38       1.0  0.69060  0.03440  0.15200  1.0000
  H   H39       1.0  0.19060  0.46560  0.84800  1.0000
  H   H40       1.0  0.30940  0.03440  0.34800  1.0000
  H   H41       1.0  0.08580  0.53300  0.32770  1.0000
  H   H42       1.0  0.41420  0.96700  0.82770  1.0000
  H   H43       1.0  0.91420  0.53300  0.17230  1.0000
  H   H44       1.0  0.58580  0.96700  0.67230  1.0000
  H   H45       1.0  0.91420  0.46700  0.67230  1.0000
  H   H46       1.0  0.58580  0.03300  0.17230  1.0000
  H   H47       1.0  0.08580  0.46700  0.82770  1.0000
  H   H48       1.0  0.41420  0.03300  0.32770  1.0000
  C   C33       1.0  0.11100  0.56600  0.43990  1.0000
  C   C34       1.0  0.38900  0.93400  0.93990  1.0000
  C   C35       1.0  0.88900  0.56600  0.06010  1.0000
  C   C36       1.0  0.61100  0.93400  0.56010  1.0000
  C   C37       1.0  0.88900  0.43400  0.56010  1.0000
  C   C38       1.0  0.61100  0.06600  0.06010  1.0000
  C   C39       1.0  0.11100  0.43400  0.93990  1.0000
  C   C40       1.0  0.38900  0.06600  0.43990  1.0000
  H   H49       1.0  0.04700  0.58200  0.44530  1.0000
  H   H50       1.0  0.45300  0.91800  0.94530  1.0000
  H   H51       1.0  0.95300  0.58200  0.05470  1.0000
  H   H52       1.0  0.54700  0.91800  0.55470  1.0000
  H   H53       1.0  0.95300  0.41800  0.55470  1.0000
  H   H54       1.0  0.54700  0.08200  0.05470  1.0000
  H   H55       1.0  0.04700  0.41800  0.94530  1.0000
  H   H56       1.0  0.45300  0.08200  0.44530  1.0000
  C   C41       1.0  0.17150  0.62240  0.48510  1.0000
  C   C42       1.0  0.32850  0.87760  0.98510  1.0000
  C   C43       1.0  0.82850  0.62240  0.01490  1.0000
  C   C44       1.0  0.67150  0.87760  0.51490  1.0000
  C   C45       1.0  0.82850  0.37760  0.51490  1.0000
  C   C46       1.0  0.67150  0.12240  0.01490  1.0000
  C   C47       1.0  0.17150  0.37760  0.98510  1.0000
  C   C48       1.0  0.32850  0.12240  0.48510  1.0000
  H   H57       1.0  0.14660  0.63000  0.53780  1.0000
  H   H58       1.0  0.35340  0.87000  0.03780  1.0000
  H   H59       1.0  0.85340  0.63000  0.96220  1.0000
  H   H60       1.0  0.64660  0.87000  0.46220  1.0000
  H   H61       1.0  0.85340  0.37000  0.46220  1.0000
  H   H62       1.0  0.64660  0.13000  0.96220  1.0000
  H   H63       1.0  0.14660  0.37000  0.03780  1.0000
  H   H64       1.0  0.35340  0.13000  0.53780  1.0000
  H   H65       1.0  0.23270  0.60150  0.49070  1.0000
  H   H66       1.0  0.26730  0.89850  0.99070  1.0000
  H   H67       1.0  0.76730  0.60150  0.00930  1.0000
  H   H68       1.0  0.73270  0.89850  0.50930  1.0000
  H   H69       1.0  0.76730  0.39850  0.50930  1.0000
  H   H70       1.0  0.73270  0.10150  0.00930  1.0000
  H   H71       1.0  0.23270  0.39850  0.99070  1.0000
  H   H72       1.0  0.26730  0.10150  0.49070  1.0000
  C   C49       1.0  0.23240  0.75040  0.48750  1.0000
  C   C50       1.0  0.26760  0.74960  0.98750  1.0000
  C   C51       1.0  0.76760  0.75040  0.01250  1.0000
  C   C52       1.0  0.73240  0.74960  0.51250  1.0000
  C   C53       1.0  0.76760  0.24960  0.51250  1.0000
  C   C54       1.0  0.73240  0.25040  0.01250  1.0000
  C   C55       1.0  0.23240  0.24960  0.98750  1.0000
  C   C56       1.0  0.26760  0.25040  0.48750  1.0000
  C   C57       1.0  0.16470  0.62810  0.23130  1.0000
  C   C58       1.0  0.33530  0.87190  0.73130  1.0000
  C   C59       1.0  0.83530  0.62810  0.26870  1.0000
  C   C60       1.0  0.66470  0.87190  0.76870  1.0000
  C   C61       1.0  0.83530  0.37190  0.76870  1.0000
  C   C62       1.0  0.66470  0.12810  0.26870  1.0000
  C   C63       1.0  0.16470  0.37190  0.73130  1.0000
  C   C64       1.0  0.33530  0.12810  0.23130  1.0000
  C   C65       1.0  0.12210  0.49370  0.48030  1.0000
  C   C66       1.0  0.37790  0.00630  0.98030  1.0000
  C   C67       1.0  0.87790  0.49370  0.01970  1.0000
  C   C68       1.0  0.62210  0.00630  0.51970  1.0000
  C   C69       1.0  0.87790  0.50630  0.51970  1.0000
  C   C70       1.0  0.62210  0.99370  0.01970  1.0000
  C   C71       1.0  0.12210  0.50630  0.98030  1.0000
  C   C72       1.0  0.37790  0.99370  0.48030  1.0000
