data_image0
_chemical_formula_structural       U4O30C2H2C4H2C4H2C8H2C2O2C6H2C4H2C6H2C2H2C2H2C2H2C4H2C2H2
_chemical_formula_sum              "U4 O32 C48 H24"
_cell_length_a       19.774
_cell_length_b       19.772
_cell_length_c       22.27
_cell_angle_alpha    76.69
_cell_angle_beta     79.18
_cell_angle_gamma    60.189

_space_group_name_H-M_alt    "P 1"
_space_group_IT_number       1

loop_
  _space_group_symop_operation_xyz
  'x, y, z'

loop_
  _atom_site_type_symbol
  _atom_site_label
  _atom_site_symmetry_multiplicity
  _atom_site_fract_x
  _atom_site_fract_y
  _atom_site_fract_z
  _atom_site_occupancy
  U   U1        1.0  0.63327  0.06527  0.92653  1.0000
  U   U2        1.0  0.36673  0.93473  0.07347  1.0000
  U   U3        1.0  0.96831  0.40193  0.91712  1.0000
  U   U4        1.0  0.03169  0.59807  0.08288  1.0000
  O   O1        1.0  0.50400  0.07610  0.92760  1.0000
  O   O2        1.0  0.49600  0.92390  0.07240  1.0000
  O   O3        1.0  0.75290  0.93620  0.92620  1.0000
  O   O4        1.0  0.24710  0.06380  0.07380  1.0000
  O   O5        1.0  0.64480  0.18430  0.92350  1.0000
  O   O6        1.0  0.35520  0.81570  0.07650  1.0000
  O   O7        1.0  0.50560  0.18580  0.92880  1.0000
  O   O8        1.0  0.49440  0.81420  0.07120  1.0000
  O   O9        1.0  0.62530  0.04600  0.00870  1.0000
  O   O10       1.0  0.37470  0.95400  0.99130  1.0000
  O   O11       1.0  0.64230  0.93690  0.92130  1.0000
  O   O12       1.0  0.35770  0.06310  0.07870  1.0000
  O   O13       1.0  0.09670  0.39450  0.91680  1.0000
  O   O14       1.0  0.90330  0.60550  0.08320  1.0000
  O   O15       1.0  0.95660  0.53120  0.91540  1.0000
  O   O16       1.0  0.04340  0.46880  0.08460  1.0000
  O   O17       1.0  0.97660  0.41790  0.83590  1.0000
  O   O18       1.0  0.02340  0.58210  0.16410  1.0000
  O   O19       1.0  0.75520  0.07320  0.92410  1.0000
  O   O20       1.0  0.24480  0.92680  0.07590  1.0000
  O   O21       1.0  0.84990  0.38960  0.91520  1.0000
  O   O22       1.0  0.15010  0.61040  0.08480  1.0000
  O   O23       1.0  0.84620  0.52740  0.92180  1.0000
  O   O24       1.0  0.15380  0.47260  0.07820  1.0000
  O   O25       1.0  0.95910  0.28170  0.91930  1.0000
  O   O26       1.0  0.04090  0.71830  0.08070  1.0000
  O   O27       1.0  0.63990  0.08430  0.84390  1.0000
  O   O28       1.0  0.36010  0.91570  0.15610  1.0000
  O   O29       1.0  0.95810  0.38370  0.99930  1.0000
  O   O30       1.0  0.04190  0.61630  0.00070  1.0000
  C   C1        1.0  0.34040  0.15290  0.92970  1.0000
  C   C2        1.0  0.65960  0.84710  0.07030  1.0000
  H   H1        1.0  0.36720  0.09690  0.93460  1.0000
  H   H2        1.0  0.63280  0.90310  0.06540  1.0000
  C   C3        1.0  0.71680  0.90070  0.92400  1.0000
  C   C4        1.0  0.28320  0.09930  0.07600  1.0000
  C   C5        1.0  0.76310  0.31250  0.91830  1.0000
  C   C6        1.0  0.23690  0.68750  0.08170  1.0000
  H   H3        1.0  0.73550  0.36780  0.91900  1.0000
  H   H4        1.0  0.26450  0.63220  0.08100  1.0000
  C   C7        1.0  0.46720  0.15090  0.92780  1.0000
  C   C8        1.0  0.53280  0.84910  0.07220  1.0000
  C   C9        1.0  0.83910  0.77190  0.92820  1.0000
  C   C10       1.0  0.16090  0.22810  0.07180  1.0000
  H   H5        1.0  0.86610  0.79850  0.93350  1.0000
  H   H6        1.0  0.13390  0.20150  0.06650  1.0000
  C   C11       1.0  0.88480  0.31850  0.91660  1.0000
  C   C12       1.0  0.11520  0.68150  0.08340  1.0000
  C   C13       1.0  0.83990  0.65140  0.92060  1.0000
  C   C14       1.0  0.16010  0.34860  0.07940  1.0000
  C   C15       1.0  0.84220  0.27430  0.91620  1.0000
  C   C16       1.0  0.15780  0.72570  0.08380  1.0000
  C   C17       1.0  0.88470  0.19360  0.91700  1.0000
  C   C18       1.0  0.11530  0.80640  0.08300  1.0000
  H   H7        1.0  0.94010  0.16740  0.91660  1.0000
  H   H8        1.0  0.05990  0.83260  0.08340  1.0000
  C   C19       1.0  0.76180  0.19120  0.91990  1.0000
  C   C20       1.0  0.23820  0.80880  0.08010  1.0000
  O   O31       1.0  0.09710  0.28140  0.92030  1.0000
  O   O32       1.0  0.90290  0.71860  0.07970  1.0000
  C   C21       1.0  0.75840  0.81330  0.92230  1.0000
  C   C22       1.0  0.24160  0.18670  0.07770  1.0000
  C   C23       1.0  0.22020  0.27620  0.92150  1.0000
  C   C24       1.0  0.77980  0.72380  0.07850  1.0000
  C   C25       1.0  0.72230  0.27370  0.91950  1.0000
  C   C26       1.0  0.27770  0.72630  0.08050  1.0000
  H   H9        1.0  0.66690  0.30200  0.92010  1.0000
  H   H10       1.0  0.33310  0.69800  0.07990  1.0000
  C   C27       1.0  0.13380  0.31910  0.91900  1.0000
  C   C28       1.0  0.86620  0.68090  0.08100  1.0000
  C   C29       1.0  0.87900  0.69140  0.92630  1.0000
  C   C30       1.0  0.12100  0.30860  0.07370  1.0000
  H   H11       1.0  0.93400  0.66320  0.92890  1.0000
  H   H12       1.0  0.06600  0.33680  0.07110  1.0000
  C   C31       1.0  0.38160  0.19360  0.92510  1.0000
  C   C32       1.0  0.61840  0.80640  0.07490  1.0000
  C   C33       1.0  0.71840  0.14760  0.92290  1.0000
  C   C34       1.0  0.28160  0.85240  0.07710  1.0000
  C   C35       1.0  0.71740  0.77500  0.91240  1.0000
  C   C36       1.0  0.28260  0.22500  0.08760  1.0000
  H   H13       1.0  0.66360  0.80400  0.90530  1.0000
  H   H14       1.0  0.33640  0.19600  0.09470  1.0000
  C   C37       1.0  0.34180  0.27630  0.91970  1.0000
  C   C38       1.0  0.65820  0.72370  0.08030  1.0000
  H   H15       1.0  0.37000  0.30430  0.91710  1.0000
  H   H16       1.0  0.63000  0.69570  0.08290  1.0000
  C   C39       1.0  0.75850  0.69440  0.91370  1.0000
  C   C40       1.0  0.24150  0.30560  0.08630  1.0000
  H   H17       1.0  0.73180  0.66710  0.90980  1.0000
  H   H18       1.0  0.26820  0.33290  0.09020  1.0000
  C   C41       1.0  0.84470  0.15040  0.91840  1.0000
  C   C42       1.0  0.15530  0.84960  0.08160  1.0000
  H   H19       1.0  0.87280  0.09510  0.91820  1.0000
  H   H20       1.0  0.12720  0.90490  0.08180  1.0000
  C   C43       1.0  0.88360  0.56800  0.91930  1.0000
  C   C44       1.0  0.11640  0.43200  0.08070  1.0000
  C   C45       1.0  0.25980  0.19380  0.92720  1.0000
  C   C46       1.0  0.74020  0.80620  0.07280  1.0000
  H   H21       1.0  0.23150  0.16590  0.92940  1.0000
  H   H22       1.0  0.76850  0.83410  0.07060  1.0000
  C   C47       1.0  0.26150  0.31660  0.91800  1.0000
  C   C48       1.0  0.73850  0.68340  0.08200  1.0000
  H   H23       1.0  0.23450  0.37250  0.91450  1.0000
  H   H24       1.0  0.76550  0.62750  0.08550  1.0000
