data_image0
_chemical_formula_structural       U4C4U4C8H4C4H4O4C8H4O4C4H4O4C4O4C8O4C4H4O8C4H4O4C4H4C4O4C4H4O4C4H4O4C4O8C4O4C4H4O4C4O4C8H4C8H4
_chemical_formula_sum              "U8 C96 H48 O64"
_cell_length_a       16.6776
_cell_length_b       30.143
_cell_length_c       19.5111
_cell_angle_alpha    90
_cell_angle_beta     91.47
_cell_angle_gamma    90

_space_group_name_H-M_alt    "P 1"
_space_group_IT_number       1

loop_
  _space_group_symop_operation_xyz
  'x, y, z'

loop_
  _atom_site_type_symbol
  _atom_site_label
  _atom_site_symmetry_multiplicity
  _atom_site_fract_x
  _atom_site_fract_y
  _atom_site_fract_z
  _atom_site_occupancy
  U   U1        1.0  0.32320  0.55494  0.02643  1.0000
  U   U2        1.0  0.17680  0.05494  0.47357  1.0000
  U   U3        1.0  0.67680  0.44506  0.97357  1.0000
  U   U4        1.0  0.82320  0.94506  0.52643  1.0000
  C   C1        1.0  0.41540  0.55350  0.90510  1.0000
  C   C2        1.0  0.08460  0.05350  0.59490  1.0000
  C   C3        1.0  0.58460  0.44650  0.09490  1.0000
  C   C4        1.0  0.91540  0.94650  0.40510  1.0000
  U   U5        1.0  0.67389  0.54739  0.53283  1.0000
  U   U6        1.0  0.82611  0.04739  0.96717  1.0000
  U   U7        1.0  0.32611  0.45261  0.46717  1.0000
  U   U8        1.0  0.17389  0.95261  0.03283  1.0000
  C   C5        1.0  0.46190  0.55240  0.84340  1.0000
  C   C6        1.0  0.03810  0.05240  0.65660  1.0000
  C   C7        1.0  0.53810  0.44760  0.15660  1.0000
  C   C8        1.0  0.96190  0.94760  0.34340  1.0000
  C   C9        1.0  0.54560  0.55180  0.84820  1.0000
  C   C10       1.0  0.95440  0.05180  0.65180  1.0000
  C   C11       1.0  0.45440  0.44820  0.15180  1.0000
  C   C12       1.0  0.04560  0.94820  0.34820  1.0000
  H   H1        1.0  0.57140  0.55230  0.89100  1.0000
  H   H2        1.0  0.92860  0.05230  0.60900  1.0000
  H   H3        1.0  0.42860  0.44770  0.10900  1.0000
  H   H4        1.0  0.07140  0.94770  0.39100  1.0000
  C   C13       1.0  0.58970  0.55030  0.78990  1.0000
  C   C14       1.0  0.91030  0.05030  0.71010  1.0000
  C   C15       1.0  0.41030  0.44970  0.21010  1.0000
  C   C16       1.0  0.08970  0.94970  0.28990  1.0000
  H   H5        1.0  0.64540  0.54900  0.79350  1.0000
  H   H6        1.0  0.85460  0.04900  0.70650  1.0000
  H   H7        1.0  0.35460  0.45100  0.20650  1.0000
  H   H8        1.0  0.14540  0.95100  0.29350  1.0000
  O   O1        1.0  0.19640  0.54640  0.96200  1.0000
  O   O2        1.0  0.30360  0.04640  0.53800  1.0000
  O   O3        1.0  0.80360  0.45360  0.03800  1.0000
  O   O4        1.0  0.69640  0.95360  0.46200  1.0000
  C   C17       1.0  0.55150  0.55080  0.72440  1.0000
  C   C18       1.0  0.94850  0.05080  0.77560  1.0000
  C   C19       1.0  0.44850  0.44920  0.27560  1.0000
  C   C20       1.0  0.05150  0.94920  0.22440  1.0000
  C   C21       1.0  0.46720  0.55090  0.71980  1.0000
  C   C22       1.0  0.03280  0.05090  0.78020  1.0000
  C   C23       1.0  0.53280  0.44910  0.28020  1.0000
  C   C24       1.0  0.96720  0.94910  0.21980  1.0000
  H   H9        1.0  0.44110  0.54950  0.67720  1.0000
  H   H10       1.0  0.05890  0.04950  0.82280  1.0000
  H   H11       1.0  0.55890  0.45050  0.32280  1.0000
  H   H12       1.0  0.94110  0.95050  0.17720  1.0000
  O   O5        1.0  0.18750  0.54600  0.07350  1.0000
  O   O6        1.0  0.31250  0.04600  0.42650  1.0000
  O   O7        1.0  0.81250  0.45400  0.92650  1.0000
  O   O8        1.0  0.68750  0.95400  0.57350  1.0000
  C   C25       1.0  0.42410  0.55310  0.77750  1.0000
  C   C26       1.0  0.07590  0.05310  0.72250  1.0000
  C   C27       1.0  0.57590  0.44690  0.22250  1.0000
  C   C28       1.0  0.92410  0.94690  0.27750  1.0000
  H   H13       1.0  0.36850  0.55500  0.77380  1.0000
  H   H14       1.0  0.13150  0.05500  0.72620  1.0000
  H   H15       1.0  0.63150  0.44500  0.22620  1.0000
  H   H16       1.0  0.86850  0.94500  0.27380  1.0000
  O   O9        1.0  0.33210  0.49640  0.03330  1.0000
  O   O10       1.0  0.16790  0.99640  0.46670  1.0000
  O   O11       1.0  0.66790  0.50360  0.96670  1.0000
  O   O12       1.0  0.83210  0.00360  0.53330  1.0000
  C   C29       1.0  0.59680  0.54840  0.66030  1.0000
  C   C30       1.0  0.90320  0.04840  0.83970  1.0000
  C   C31       1.0  0.40320  0.45160  0.33970  1.0000
  C   C32       1.0  0.09680  0.95160  0.16030  1.0000
  O   O13       1.0  0.31520  0.61320  0.02150  1.0000
  O   O14       1.0  0.18480  0.11320  0.47850  1.0000
  O   O15       1.0  0.68480  0.38680  0.97850  1.0000
  O   O16       1.0  0.81520  0.88680  0.52150  1.0000
  C   C33       1.0  0.58180  0.55830  0.40940  1.0000
  C   C34       1.0  0.91820  0.05830  0.09060  1.0000
  C   C35       1.0  0.41820  0.44170  0.59060  1.0000
  C   C36       1.0  0.08180  0.94170  0.90940  1.0000
  C   C37       1.0  0.53430  0.56140  0.34520  1.0000
  C   C38       1.0  0.96570  0.06140  0.15480  1.0000
  C   C39       1.0  0.46570  0.43860  0.65480  1.0000
  C   C40       1.0  0.03430  0.93860  0.84520  1.0000
  O   O17       1.0  0.43970  0.56320  0.10210  1.0000
  O   O18       1.0  0.06030  0.06320  0.39790  1.0000
  O   O19       1.0  0.56030  0.43680  0.89790  1.0000
  O   O20       1.0  0.93970  0.93680  0.60210  1.0000
  C   C41       1.0  0.45310  0.56100  0.34500  1.0000
  C   C42       1.0  0.04690  0.06100  0.15500  1.0000
  C   C43       1.0  0.54690  0.43900  0.65500  1.0000
  C   C44       1.0  0.95310  0.93900  0.84500  1.0000
  H   H17       1.0  0.42710  0.55990  0.38660  1.0000
  H   H18       1.0  0.07290  0.05990  0.11340  1.0000
  H   H19       1.0  0.57290  0.44010  0.61340  1.0000
  H   H20       1.0  0.92710  0.94010  0.88660  1.0000
  O   O21       1.0  0.32600  0.55820  0.15290  1.0000
  O   O22       1.0  0.17400  0.05820  0.34710  1.0000
  O   O23       1.0  0.67400  0.44180  0.84710  1.0000
  O   O24       1.0  0.82600  0.94180  0.65290  1.0000
  O   O25       1.0  0.68710  0.60580  0.54100  1.0000
  O   O26       1.0  0.81290  0.10580  0.95900  1.0000
  O   O27       1.0  0.31290  0.39420  0.45900  1.0000
  O   O28       1.0  0.18710  0.89420  0.04100  1.0000
  C   C45       1.0  0.40750  0.56210  0.28480  1.0000
  C   C46       1.0  0.09250  0.06210  0.21520  1.0000
  C   C47       1.0  0.59250  0.43790  0.71520  1.0000
  C   C48       1.0  0.90750  0.93790  0.78480  1.0000
  H   H21       1.0  0.35180  0.56240  0.28590  1.0000
  H   H22       1.0  0.14820  0.06240  0.21410  1.0000
  H   H23       1.0  0.64820  0.43760  0.71410  1.0000
  H   H24       1.0  0.85180  0.93760  0.78590  1.0000
  O   O29       1.0  0.67100  0.54350  0.65950  1.0000
  O   O30       1.0  0.82900  0.04350  0.84050  1.0000
  O   O31       1.0  0.32900  0.45650  0.34050  1.0000
  O   O32       1.0  0.17100  0.95650  0.15950  1.0000
  C   C49       1.0  0.96470  0.47970  0.05570  1.0000
  C   C50       1.0  0.53530  0.97970  0.44430  1.0000
  C   C51       1.0  0.03530  0.52030  0.94430  1.0000
  C   C52       1.0  0.46470  0.02030  0.55570  1.0000
  H   H25       1.0  0.94110  0.46620  0.09300  1.0000
  H   H26       1.0  0.55890  0.96620  0.40700  1.0000
  H   H27       1.0  0.05890  0.53380  0.90700  1.0000
  H   H28       1.0  0.44110  0.03380  0.59300  1.0000
  C   C53       1.0  0.40160  0.56100  0.15660  1.0000
  C   C54       1.0  0.09840  0.06100  0.34340  1.0000
  C   C55       1.0  0.59840  0.43900  0.84340  1.0000
  C   C56       1.0  0.90160  0.93900  0.65660  1.0000
  O   O33       1.0  0.55890  0.55170  0.60410  1.0000
  O   O34       1.0  0.94110  0.05170  0.89590  1.0000
  O   O35       1.0  0.44110  0.44830  0.39590  1.0000
  O   O36       1.0  0.05890  0.94830  0.10410  1.0000
  C   C57       1.0  0.57420  0.56110  0.28210  1.0000
  C   C58       1.0  0.92580  0.06110  0.21790  1.0000
  C   C59       1.0  0.42580  0.43890  0.71790  1.0000
  C   C60       1.0  0.07420  0.93890  0.78210  1.0000
  H   H29       1.0  0.62990  0.56030  0.28130  1.0000
  H   H30       1.0  0.87010  0.06030  0.21870  1.0000
  H   H31       1.0  0.37010  0.43970  0.71870  1.0000
  H   H32       1.0  0.12990  0.93970  0.78130  1.0000
  O   O37       1.0  0.54850  0.56150  0.46580  1.0000
  O   O38       1.0  0.95150  0.06150  0.03420  1.0000
  O   O39       1.0  0.45150  0.43850  0.53420  1.0000
  O   O40       1.0  0.04850  0.93850  0.96580  1.0000
  C   C61       1.0  0.52980  0.56210  0.22270  1.0000
  C   C62       1.0  0.97020  0.06210  0.27730  1.0000
  C   C63       1.0  0.47020  0.43790  0.77730  1.0000
  C   C64       1.0  0.02980  0.93790  0.72270  1.0000
  H   H33       1.0  0.55590  0.56240  0.18120  1.0000
  H   H34       1.0  0.94410  0.06240  0.31880  1.0000
  H   H35       1.0  0.44410  0.43760  0.81880  1.0000
  H   H36       1.0  0.05590  0.93760  0.68120  1.0000
  O   O41       1.0  0.65520  0.55230  0.40640  1.0000
  O   O42       1.0  0.84480  0.05230  0.09360  1.0000
  O   O43       1.0  0.34480  0.44770  0.59360  1.0000
  O   O44       1.0  0.15520  0.94770  0.90640  1.0000
  C   C65       1.0  0.44650  0.56260  0.22250  1.0000
  C   C66       1.0  0.05350  0.06260  0.27750  1.0000
  C   C67       1.0  0.55350  0.43740  0.77750  1.0000
  C   C68       1.0  0.94650  0.93740  0.72250  1.0000
  O   O45       1.0  0.66110  0.48980  0.52630  1.0000
  O   O46       1.0  0.83890  0.98980  0.97370  1.0000
  O   O47       1.0  0.33890  0.51020  0.47370  1.0000
  O   O48       1.0  0.16110  0.01020  0.02630  1.0000
  O   O49       1.0  0.79720  0.53990  0.46970  1.0000
  O   O50       1.0  0.70280  0.03990  0.03030  1.0000
  O   O51       1.0  0.20280  0.46010  0.53030  1.0000
  O   O52       1.0  0.29720  0.96010  0.96970  1.0000
  C   C69       1.0  0.07410  0.52080  0.00720  1.0000
  C   C70       1.0  0.42590  0.02080  0.49280  1.0000
  C   C71       1.0  0.92590  0.47920  0.99280  1.0000
  C   C72       1.0  0.57410  0.97920  0.50720  1.0000
  O   O53       1.0  0.81110  0.53280  0.58010  1.0000
  O   O54       1.0  0.68890  0.03280  0.91990  1.0000
  O   O55       1.0  0.18890  0.46720  0.41990  1.0000
  O   O56       1.0  0.31110  0.96720  0.08010  1.0000
  C   C73       1.0  0.03890  0.50030  0.06400  1.0000
  C   C74       1.0  0.46110  0.00030  0.43600  1.0000
  C   C75       1.0  0.96110  0.49970  0.93600  1.0000
  C   C76       1.0  0.53890  0.99970  0.56400  1.0000
  H   H37       1.0  0.06510  0.50060  0.10660  1.0000
  H   H38       1.0  0.43490  0.00060  0.39340  1.0000
  H   H39       1.0  0.93490  0.49940  0.89340  1.0000
  H   H40       1.0  0.56510  0.99940  0.60660  1.0000
  O   O57       1.0  0.44770  0.55950  0.96290  1.0000
  O   O58       1.0  0.05230  0.05950  0.53710  1.0000
  O   O59       1.0  0.55230  0.44050  0.03710  1.0000
  O   O60       1.0  0.94770  0.94050  0.46290  1.0000
  C   C77       1.0  0.15620  0.53920  0.01670  1.0000
  C   C78       1.0  0.34380  0.03920  0.48330  1.0000
  C   C79       1.0  0.84380  0.46080  0.98330  1.0000
  C   C80       1.0  0.65620  0.96080  0.51670  1.0000
  O   O61       1.0  0.34050  0.54760  0.90100  1.0000
  O   O62       1.0  0.15950  0.04760  0.59900  1.0000
  O   O63       1.0  0.65950  0.45240  0.09900  1.0000
  O   O64       1.0  0.84050  0.95240  0.40100  1.0000
  C   C81       1.0  0.83940  0.53020  0.52200  1.0000
  C   C82       1.0  0.66060  0.03020  0.97800  1.0000
  C   C83       1.0  0.16060  0.46980  0.47800  1.0000
  C   C84       1.0  0.33940  0.96980  0.02200  1.0000
  C   C85       1.0  0.97760  0.51220  0.56450  1.0000
  C   C86       1.0  0.52240  0.01220  0.93550  1.0000
  C   C87       1.0  0.02240  0.48780  0.43550  1.0000
  C   C88       1.0  0.47760  0.98780  0.06450  1.0000
  H   H41       1.0  0.96300  0.52110  0.60810  1.0000
  H   H42       1.0  0.53700  0.02110  0.89190  1.0000
  H   H43       1.0  0.03700  0.47890  0.39190  1.0000
  H   H44       1.0  0.46300  0.97890  0.10810  1.0000
  C   C89       1.0  0.92250  0.51470  0.51120  1.0000
  C   C90       1.0  0.57750  0.01470  0.98880  1.0000
  C   C91       1.0  0.07750  0.48530  0.48880  1.0000
  C   C92       1.0  0.42250  0.98530  0.01120  1.0000
  C   C93       1.0  0.05340  0.49690  0.55480  1.0000
  C   C94       1.0  0.44660  0.99690  0.94520  1.0000
  C   C95       1.0  0.94660  0.50310  0.44520  1.0000
  C   C96       1.0  0.55340  0.00310  0.05480  1.0000
  H   H45       1.0  0.08910  0.49420  0.59190  1.0000
  H   H46       1.0  0.41090  0.99420  0.90810  1.0000
  H   H47       1.0  0.91090  0.50580  0.40810  1.0000
  H   H48       1.0  0.58910  0.00580  0.09190  1.0000
