data_image0
_chemical_formula_structural       K5C8H2C4H2N2O20S4H4
_chemical_formula_sum              "K5 C12 H8 N2 O20 S4"
_cell_length_a       7.207
_cell_length_b       9.39
_cell_length_c       11.382
_cell_angle_alpha    87.482
_cell_angle_beta     84.877
_cell_angle_gamma    71.74

_space_group_name_H-M_alt    "P 1"
_space_group_IT_number       1

loop_
  _space_group_symop_operation_xyz
  'x, y, z'

loop_
  _atom_site_type_symbol
  _atom_site_label
  _atom_site_symmetry_multiplicity
  _atom_site_fract_x
  _atom_site_fract_y
  _atom_site_fract_z
  _atom_site_occupancy
  K   K1        1.0  0.59289  0.87249  0.80920  1.0000
  K   K2        1.0  0.40711  0.12751  0.19080  1.0000
  K   K3        1.0  0.24084  0.00085  0.53008  1.0000
  K   K4        1.0  0.75916  0.99915  0.46992  1.0000
  K   K5        1.0  0.00000  0.00000  0.00000  1.0000
  C   C1        1.0  0.68120  0.60760  0.42510  1.0000
  C   C2        1.0  0.31880  0.39240  0.57490  1.0000
  C   C3        1.0  0.59680  0.71980  0.33730  1.0000
  C   C4        1.0  0.40320  0.28020  0.66270  1.0000
  C   C5        1.0  0.59360  0.65340  0.22380  1.0000
  C   C6        1.0  0.40640  0.34660  0.77620  1.0000
  C   C7        1.0  0.67220  0.50390  0.20180  1.0000
  C   C8        1.0  0.32780  0.49610  0.79820  1.0000
  H   H1        1.0  0.66130  0.46760  0.12880  1.0000
  H   H2        1.0  0.33870  0.53240  0.87120  1.0000
  C   C9        1.0  0.77010  0.40370  0.28910  1.0000
  C   C10       1.0  0.22990  0.59630  0.71090  1.0000
  C   C11       1.0  0.77230  0.45520  0.39880  1.0000
  C   C12       1.0  0.22770  0.54480  0.60120  1.0000
  H   H3        1.0  0.83450  0.38920  0.45690  1.0000
  H   H4        1.0  0.16550  0.61080  0.54310  1.0000
  N   N1        1.0  0.67920  0.64700  0.54526  1.0000
  N   N2        1.0  0.32080  0.35300  0.45474  1.0000
  O   O1        1.0  0.50160  0.68080  0.00718  1.0000
  O   O2        1.0  0.49840  0.31920  0.99282  1.0000
  O   O3        1.0  0.63030  0.86570  0.08013  1.0000
  O   O4        1.0  0.36970  0.13430  0.91987  1.0000
  O   O5        1.0  0.30050  0.86660  0.14470  1.0000
  O   O6        1.0  0.69950  0.13340  0.85530  1.0000
  O   O7        1.0  0.01880  0.22670  0.14305  1.0000
  O   O8        1.0  0.98120  0.77330  0.85695  1.0000
  O   O9        1.0  0.01940  0.15440  0.35023  1.0000
  O   O10       1.0  0.98060  0.84560  0.64977  1.0000
  O   O11       1.0  0.76140  0.13820  0.23620  1.0000
  O   O12       1.0  0.23860  0.86180  0.76380  1.0000
  O   O13       1.0  0.75020  0.54820  0.61847  1.0000
  O   O14       1.0  0.24980  0.45180  0.38153  1.0000
  O   O15       1.0  0.60280  0.77840  0.57611  1.0000
  O   O16       1.0  0.39720  0.22160  0.42389  1.0000
  O   O17       1.0  0.53250  0.85900  0.35220  1.0000
  O   O18       1.0  0.46750  0.14100  0.64780  1.0000
  O   O19       1.0  0.89450  0.19540  0.63420  1.0000
  O   O20       1.0  0.10550  0.80460  0.36580  1.0000
  S   S1        1.0  0.50008  0.77614  0.10483  1.0000
  S   S2        1.0  0.49992  0.22386  0.89517  1.0000
  S   S3        1.0  0.90149  0.21670  0.25222  1.0000
  S   S4        1.0  0.09851  0.78330  0.74778  1.0000
  H   H5        1.0  0.83500  0.28900  0.63700  1.0000
  H   H6        1.0  0.16500  0.71100  0.36300  1.0000
  H   H7        1.0  0.84900  0.16000  0.69400  1.0000
  H   H8        1.0  0.15100  0.84000  0.30600  1.0000
