data_image0
_chemical_formula_structural       Ag4C8H4C12H4C4H4C4H4C4H4C12H4C4H4C4H4C4H8C4H8C4H8C4H8C4H4C4H4C4H4N20O20S4
_chemical_formula_sum              "Ag4 C80 H76 N20 O20 S4"
_cell_length_a       14.8
_cell_length_b       13.999
_cell_length_c       16.503
_cell_angle_alpha    90
_cell_angle_beta     103.721
_cell_angle_gamma    90

_space_group_name_H-M_alt    "P 1"
_space_group_IT_number       1

loop_
  _space_group_symop_operation_xyz
  'x, y, z'

loop_
  _atom_site_type_symbol
  _atom_site_label
  _atom_site_symmetry_multiplicity
  _atom_site_fract_x
  _atom_site_fract_y
  _atom_site_fract_z
  _atom_site_occupancy
  Ag  Ag1       1.0  0.00861  0.05735  0.11372  1.0000
  Ag  Ag2       1.0  0.99139  0.55735  0.38628  1.0000
  Ag  Ag3       1.0  0.99139  0.94265  0.88628  1.0000
  Ag  Ag4       1.0  0.00861  0.44265  0.61372  1.0000
  C   C1        1.0  0.76940  0.28420  0.05380  1.0000
  C   C2        1.0  0.23060  0.78420  0.44620  1.0000
  C   C3        1.0  0.23060  0.71580  0.94620  1.0000
  C   C4        1.0  0.76940  0.21580  0.55380  1.0000
  C   C5        1.0  0.76780  0.33000  0.98190  1.0000
  C   C6        1.0  0.23220  0.83000  0.51810  1.0000
  C   C7        1.0  0.23220  0.67000  0.01810  1.0000
  C   C8        1.0  0.76780  0.17000  0.48190  1.0000
  H   H1        1.0  0.77150  0.29400  0.93550  1.0000
  H   H2        1.0  0.22850  0.79400  0.56450  1.0000
  H   H3        1.0  0.22850  0.70600  0.06450  1.0000
  H   H4        1.0  0.77150  0.20600  0.43550  1.0000
  C   C9        1.0  0.76040  0.43220  0.97360  1.0000
  C   C10       1.0  0.23960  0.93220  0.52640  1.0000
  C   C11       1.0  0.23960  0.56780  0.02640  1.0000
  C   C12       1.0  0.76040  0.06780  0.47360  1.0000
  C   C13       1.0  0.76360  0.49080  0.04610  1.0000
  C   C14       1.0  0.23640  0.99080  0.45390  1.0000
  C   C15       1.0  0.23640  0.50920  0.95390  1.0000
  C   C16       1.0  0.76360  0.00920  0.54610  1.0000
  C   C17       1.0  0.77250  0.49100  0.19860  1.0000
  C   C18       1.0  0.22750  0.99100  0.30140  1.0000
  C   C19       1.0  0.22750  0.50900  0.80140  1.0000
  C   C20       1.0  0.77250  0.00900  0.69860  1.0000
  H   H5        1.0  0.77700  0.55720  0.19700  1.0000
  H   H6        1.0  0.22300  0.05720  0.30300  1.0000
  H   H7        1.0  0.22300  0.44280  0.80300  1.0000
  H   H8        1.0  0.77700  0.94280  0.69700  1.0000
  C   C21       1.0  0.77020  0.44750  0.27190  1.0000
  C   C22       1.0  0.22980  0.94750  0.22810  1.0000
  C   C23       1.0  0.22980  0.55250  0.72810  1.0000
  C   C24       1.0  0.77020  0.05250  0.77190  1.0000
  H   H9        1.0  0.77320  0.48350  0.31980  1.0000
  H   H10       1.0  0.22680  0.98350  0.18020  1.0000
  H   H11       1.0  0.22680  0.51650  0.68020  1.0000
  H   H12       1.0  0.77320  0.01650  0.81980  1.0000
  C   C25       1.0  0.76340  0.34930  0.27400  1.0000
  C   C26       1.0  0.23660  0.84930  0.22600  1.0000
  C   C27       1.0  0.23660  0.65070  0.72600  1.0000
  C   C28       1.0  0.76340  0.15070  0.77400  1.0000
  H   H13       1.0  0.75930  0.31940  0.32330  1.0000
  H   H14       1.0  0.24070  0.81940  0.17670  1.0000
  H   H15       1.0  0.24070  0.68060  0.67670  1.0000
  H   H16       1.0  0.75930  0.18060  0.82330  1.0000
  C   C29       1.0  0.76270  0.29480  0.20440  1.0000
  C   C30       1.0  0.23730  0.79480  0.29560  1.0000
  C   C31       1.0  0.23730  0.70520  0.79560  1.0000
  C   C32       1.0  0.76270  0.20520  0.70440  1.0000
  H   H17       1.0  0.75960  0.22860  0.20770  1.0000
  H   H18       1.0  0.24040  0.72860  0.29230  1.0000
  H   H19       1.0  0.24040  0.77140  0.79230  1.0000
  H   H20       1.0  0.75960  0.27140  0.70770  1.0000
  C   C33       1.0  0.76670  0.33740  0.12890  1.0000
  C   C34       1.0  0.23330  0.83740  0.37110  1.0000
  C   C35       1.0  0.23330  0.66260  0.87110  1.0000
  C   C36       1.0  0.76670  0.16260  0.62890  1.0000
  C   C37       1.0  0.76840  0.43850  0.12570  1.0000
  C   C38       1.0  0.23160  0.93850  0.37430  1.0000
  C   C39       1.0  0.23160  0.56150  0.87430  1.0000
  C   C40       1.0  0.76840  0.06150  0.62570  1.0000
  C   C41       1.0  0.15570  0.22410  0.14320  1.0000
  C   C42       1.0  0.84430  0.72410  0.35680  1.0000
  C   C43       1.0  0.84430  0.77590  0.85680  1.0000
  C   C44       1.0  0.15570  0.27590  0.64320  1.0000
  H   H21       1.0  0.20250  0.18700  0.13030  1.0000
  H   H22       1.0  0.79750  0.68700  0.36970  1.0000
  H   H23       1.0  0.79750  0.81300  0.86970  1.0000
  H   H24       1.0  0.20250  0.31300  0.63030  1.0000
  C   C45       1.0  0.02690  0.26680  0.16800  1.0000
  C   C46       1.0  0.97310  0.76680  0.33200  1.0000
  C   C47       1.0  0.97310  0.73320  0.83200  1.0000
  C   C48       1.0  0.02690  0.23320  0.66800  1.0000
  H   H25       1.0  0.96650  0.26590  0.17510  1.0000
  H   H26       1.0  0.03350  0.76590  0.32490  1.0000
  H   H27       1.0  0.03350  0.73410  0.82490  1.0000
  H   H28       1.0  0.96650  0.23410  0.67510  1.0000
  C   C49       1.0  0.16270  0.31770  0.16130  1.0000
  C   C50       1.0  0.83730  0.81770  0.33870  1.0000
  C   C51       1.0  0.83730  0.68230  0.83870  1.0000
  C   C52       1.0  0.16270  0.18230  0.66130  1.0000
  H   H29       1.0  0.21380  0.35670  0.16220  1.0000
  H   H30       1.0  0.78620  0.85670  0.33780  1.0000
  H   H31       1.0  0.78620  0.64330  0.83780  1.0000
  H   H32       1.0  0.21380  0.14330  0.66220  1.0000
  C   C53       1.0  0.05570  0.44140  0.19720  1.0000
  C   C54       1.0  0.94430  0.94140  0.30280  1.0000
  C   C55       1.0  0.94430  0.55860  0.80280  1.0000
  C   C56       1.0  0.05570  0.05860  0.69720  1.0000
  H   H33       1.0  0.10910  0.47190  0.23350  1.0000
  H   H34       1.0  0.89090  0.97190  0.26650  1.0000
  H   H35       1.0  0.89090  0.52810  0.76650  1.0000
  H   H36       1.0  0.10910  0.02810  0.73350  1.0000
  H   H37       1.0  0.00640  0.43850  0.22660  1.0000
  H   H38       1.0  0.99360  0.93850  0.27340  1.0000
  H   H39       1.0  0.99360  0.56150  0.77340  1.0000
  H   H40       1.0  0.00640  0.06150  0.72660  1.0000
  C   C57       1.0  0.02360  0.50080  0.11840  1.0000
  C   C58       1.0  0.97640  0.00080  0.38160  1.0000
  C   C59       1.0  0.97640  0.49920  0.88160  1.0000
  C   C60       1.0  0.02360  0.99920  0.61840  1.0000
  H   H41       1.0  0.07050  0.49870  0.08620  1.0000
  H   H42       1.0  0.92950  0.99870  0.41380  1.0000
  H   H43       1.0  0.92950  0.50130  0.91380  1.0000
  H   H44       1.0  0.07050  0.00130  0.58620  1.0000
  H   H45       1.0  0.96670  0.47380  0.08450  1.0000
  H   H46       1.0  0.03330  0.97380  0.41550  1.0000
  H   H47       1.0  0.03330  0.52620  0.91550  1.0000
  H   H48       1.0  0.96670  0.02620  0.58450  1.0000
  C   C61       1.0  0.00660  0.60400  0.13960  1.0000
  C   C62       1.0  0.99340  0.10400  0.36040  1.0000
  C   C63       1.0  0.99340  0.39600  0.86040  1.0000
  C   C64       1.0  0.00660  0.89600  0.63960  1.0000
  H   H49       1.0  0.95580  0.60680  0.16740  1.0000
  H   H50       1.0  0.04420  0.10680  0.33260  1.0000
  H   H51       1.0  0.04420  0.39320  0.83260  1.0000
  H   H52       1.0  0.95580  0.89320  0.66740  1.0000
  H   H53       1.0  0.06190  0.62950  0.17720  1.0000
  H   H54       1.0  0.93810  0.12950  0.32280  1.0000
  H   H55       1.0  0.93810  0.37050  0.82280  1.0000
  H   H56       1.0  0.06190  0.87050  0.67720  1.0000
  C   C65       1.0  0.98290  0.66320  0.06080  1.0000
  C   C66       1.0  0.01710  0.16320  0.43920  1.0000
  C   C67       1.0  0.01710  0.33680  0.93920  1.0000
  C   C68       1.0  0.98290  0.83680  0.56080  1.0000
  H   H57       1.0  0.03600  0.66470  0.03590  1.0000
  H   H58       1.0  0.96400  0.16470  0.46410  1.0000
  H   H59       1.0  0.96400  0.33530  0.96410  1.0000
  H   H60       1.0  0.03600  0.83530  0.53590  1.0000
  H   H61       1.0  0.93150  0.63370  0.02120  1.0000
  H   H62       1.0  0.06850  0.13370  0.47880  1.0000
  H   H63       1.0  0.06850  0.36630  0.97880  1.0000
  H   H64       1.0  0.93150  0.86630  0.52120  1.0000
  C   C69       1.0  0.00670  0.83970  0.07550  1.0000
  C   C70       1.0  0.99330  0.33970  0.42450  1.0000
  C   C71       1.0  0.99330  0.16030  0.92450  1.0000
  C   C72       1.0  0.00670  0.66030  0.57550  1.0000
  H   H65       1.0  0.06530  0.84100  0.06420  1.0000
  H   H66       1.0  0.93470  0.34100  0.43580  1.0000
  H   H67       1.0  0.93470  0.15900  0.93580  1.0000
  H   H68       1.0  0.06530  0.65900  0.56420  1.0000
  C   C73       1.0  0.87850  0.88300  0.10450  1.0000
  C   C74       1.0  0.12150  0.38300  0.39550  1.0000
  C   C75       1.0  0.12150  0.11700  0.89550  1.0000
  C   C76       1.0  0.87850  0.61700  0.60450  1.0000
  H   H69       1.0  0.83190  0.92060  0.11720  1.0000
  H   H70       1.0  0.16810  0.42060  0.38280  1.0000
  H   H71       1.0  0.16810  0.07940  0.88280  1.0000
  H   H72       1.0  0.83190  0.57940  0.61720  1.0000
  C   C77       1.0  0.87520  0.78710  0.09590  1.0000
  C   C78       1.0  0.12480  0.28710  0.40410  1.0000
  C   C79       1.0  0.12480  0.21290  0.90410  1.0000
  C   C80       1.0  0.87520  0.71290  0.59590  1.0000
  H   H73       1.0  0.82700  0.74680  0.10140  1.0000
  H   H74       1.0  0.17300  0.24680  0.39860  1.0000
  H   H75       1.0  0.17300  0.25320  0.89860  1.0000
  H   H76       1.0  0.82700  0.75320  0.60140  1.0000
  N   N1        1.0  0.74980  0.47550  0.89870  1.0000
  N   N2        1.0  0.25020  0.97550  0.60130  1.0000
  N   N3        1.0  0.25020  0.52450  0.10130  1.0000
  N   N4        1.0  0.74980  0.02450  0.39870  1.0000
  N   N5        1.0  0.96100  0.91630  0.09180  1.0000
  N   N6        1.0  0.03900  0.41630  0.40820  1.0000
  N   N7        1.0  0.03900  0.08370  0.90820  1.0000
  N   N8        1.0  0.96100  0.58370  0.59180  1.0000
  N   N9        1.0  0.06990  0.19160  0.14660  1.0000
  N   N10       1.0  0.93010  0.69160  0.35340  1.0000
  N   N11       1.0  0.93010  0.80840  0.85340  1.0000
  N   N12       1.0  0.06990  0.30840  0.64660  1.0000
  N   N13       1.0  0.08090  0.34410  0.17797  1.0000
  N   N14       1.0  0.91910  0.84410  0.32203  1.0000
  N   N15       1.0  0.91910  0.65590  0.82203  1.0000
  N   N16       1.0  0.08090  0.15590  0.67797  1.0000
  N   N17       1.0  0.95740  0.76119  0.07746  1.0000
  N   N18       1.0  0.04260  0.26119  0.42254  1.0000
  N   N19       1.0  0.04260  0.23881  0.92254  1.0000
  N   N20       1.0  0.95740  0.73881  0.57746  1.0000
  O   O1        1.0  0.84696  0.12908  0.12411  1.0000
  O   O2        1.0  0.15304  0.62908  0.37589  1.0000
  O   O3        1.0  0.15304  0.87092  0.87589  1.0000
  O   O4        1.0  0.84696  0.37092  0.62411  1.0000
  O   O5        1.0  0.68312  0.12570  0.06334  1.0000
  O   O6        1.0  0.31688  0.62570  0.43666  1.0000
  O   O7        1.0  0.31688  0.87430  0.93666  1.0000
  O   O8        1.0  0.68312  0.37430  0.56334  1.0000
  O   O9        1.0  0.79090  0.12870  0.97490  1.0000
  O   O10       1.0  0.20910  0.62870  0.52510  1.0000
  O   O11       1.0  0.20910  0.87130  0.02510  1.0000
  O   O12       1.0  0.79090  0.37130  0.47490  1.0000
  O   O13       1.0  0.76050  0.57960  0.04500  1.0000
  O   O14       1.0  0.23950  0.07960  0.45500  1.0000
  O   O15       1.0  0.23950  0.42040  0.95500  1.0000
  O   O16       1.0  0.76050  0.92040  0.54500  1.0000
  O   O17       1.0  0.74650  0.42150  0.83580  1.0000
  O   O18       1.0  0.25350  0.92150  0.66420  1.0000
  O   O19       1.0  0.25350  0.57850  0.16420  1.0000
  O   O20       1.0  0.74650  0.07850  0.33580  1.0000
  S   S1        1.0  0.77334  0.15683  0.05371  1.0000
  S   S2        1.0  0.22666  0.65683  0.44629  1.0000
  S   S3        1.0  0.22666  0.84317  0.94629  1.0000
  S   S4        1.0  0.77334  0.34317  0.55371  1.0000
