data_image0
_chemical_formula_structural       Zn4F5N16C4N4H8
_chemical_formula_sum              "Zn4 F5 N20 C4 H8"
_cell_length_a       6.5576
_cell_length_b       9.715
_cell_length_c       8.6358
_cell_angle_alpha    90
_cell_angle_beta     90.579
_cell_angle_gamma    90

_space_group_name_H-M_alt    "P 1"
_space_group_IT_number       1

loop_
  _space_group_symop_operation_xyz
  'x, y, z'

loop_
  _atom_site_type_symbol
  _atom_site_label
  _atom_site_symmetry_multiplicity
  _atom_site_fract_x
  _atom_site_fract_y
  _atom_site_fract_z
  _atom_site_occupancy
  Zn  Zn1       1.0  0.29709  0.50000  0.59708  1.0000
  Zn  Zn2       1.0  0.70291  0.50000  0.40292  1.0000
  Zn  Zn3       1.0  0.00000  0.00000  0.00000  1.0000
  Zn  Zn4       1.0  0.50000  0.00000  0.00000  1.0000
  F   F1        1.0  0.25790  0.00000  0.13830  1.0000
  F   F2        1.0  0.74210  0.00000  0.86170  1.0000
  F   F3        1.0  0.38520  0.50000  0.38220  1.0000
  F   F4        1.0  0.61480  0.50000  0.61780  1.0000
  F   F5        1.0  0.00000  0.50000  0.50000  1.0000
  N   N1        1.0  0.14150  0.15570  0.86260  1.0000
  N   N2        1.0  0.85850  0.15570  0.13740  1.0000
  N   N3        1.0  0.85850  0.84430  0.13740  1.0000
  N   N4        1.0  0.14150  0.84430  0.86260  1.0000
  N   N5        1.0  0.41570  0.25500  0.77670  1.0000
  N   N6        1.0  0.58430  0.25500  0.22330  1.0000
  N   N7        1.0  0.58430  0.74500  0.22330  1.0000
  N   N8        1.0  0.41570  0.74500  0.77670  1.0000
  N   N9        1.0  0.34800  0.15570  0.86100  1.0000
  N   N10       1.0  0.65200  0.15570  0.13900  1.0000
  N   N11       1.0  0.65200  0.84430  0.13900  1.0000
  N   N12       1.0  0.34800  0.84430  0.86100  1.0000
  N   N13       1.0  0.25300  0.32410  0.71710  1.0000
  N   N14       1.0  0.74700  0.32410  0.28290  1.0000
  N   N15       1.0  0.74700  0.67590  0.28290  1.0000
  N   N16       1.0  0.25300  0.67590  0.71710  1.0000
  C   C1        1.0  0.08560  0.26120  0.77280  1.0000
  C   C2        1.0  0.91440  0.26120  0.22720  1.0000
  C   C3        1.0  0.91440  0.73880  0.22720  1.0000
  C   C4        1.0  0.08560  0.73880  0.77280  1.0000
  N   N17       1.0  0.89050  0.29520  0.73760  1.0000
  N   N18       1.0  0.10950  0.29520  0.26240  1.0000
  N   N19       1.0  0.10950  0.70480  0.26240  1.0000
  N   N20       1.0  0.89050  0.70480  0.73760  1.0000
  H   H1        1.0  0.79170  0.24720  0.77400  1.0000
  H   H2        1.0  0.20830  0.24720  0.22600  1.0000
  H   H3        1.0  0.20830  0.75280  0.22600  1.0000
  H   H4        1.0  0.79170  0.75280  0.77400  1.0000
  H   H5        1.0  0.86530  0.36470  0.67880  1.0000
  H   H6        1.0  0.13470  0.36470  0.32120  1.0000
  H   H7        1.0  0.13470  0.63530  0.32120  1.0000
  H   H8        1.0  0.86530  0.63530  0.67880  1.0000
