data_image0
_chemical_formula_structural       Zn4O48N8C8H4C8H4C8H4C16H4C8H4C8H4C8
_chemical_formula_sum              "Zn4 O48 N8 C64 H24"
_cell_length_a       13.5127
_cell_length_b       15.0918
_cell_length_c       18.07
_cell_angle_alpha    90
_cell_angle_beta     90
_cell_angle_gamma    90

_space_group_name_H-M_alt    "P 1"
_space_group_IT_number       1

loop_
  _space_group_symop_operation_xyz
  'x, y, z'

loop_
  _atom_site_type_symbol
  _atom_site_label
  _atom_site_symmetry_multiplicity
  _atom_site_fract_x
  _atom_site_fract_y
  _atom_site_fract_z
  _atom_site_occupancy
  Zn  Zn1       1.0  0.60683  0.91365  0.22237  1.0000
  Zn  Zn2       1.0  0.89317  0.08635  0.72237  1.0000
  Zn  Zn3       1.0  0.39317  0.41365  0.27763  1.0000
  Zn  Zn4       1.0  0.10683  0.58635  0.77763  1.0000
  O   O1        1.0  0.57180  0.80260  0.17750  1.0000
  O   O2        1.0  0.92820  0.19740  0.67750  1.0000
  O   O3        1.0  0.42820  0.30260  0.32250  1.0000
  O   O4        1.0  0.07180  0.69740  0.82250  1.0000
  O   O5        1.0  0.56100  0.84350  0.05840  1.0000
  O   O6        1.0  0.93900  0.15650  0.55840  1.0000
  O   O7        1.0  0.43900  0.34350  0.44160  1.0000
  O   O8        1.0  0.06100  0.65650  0.94160  1.0000
  O   O9        1.0  0.57190  0.60420  0.87320  1.0000
  O   O10       1.0  0.92810  0.39580  0.37320  1.0000
  O   O11       1.0  0.42810  0.10420  0.62680  1.0000
  O   O12       1.0  0.07190  0.89580  0.12680  1.0000
  O   O13       1.0  0.58390  0.46690  0.90690  1.0000
  O   O14       1.0  0.91610  0.53310  0.40690  1.0000
  O   O15       1.0  0.41610  0.96690  0.59310  1.0000
  O   O16       1.0  0.08390  0.03310  0.09310  1.0000
  O   O17       1.0  0.54410  0.38660  0.16280  1.0000
  O   O18       1.0  0.95590  0.61340  0.66280  1.0000
  O   O19       1.0  0.45590  0.88660  0.33720  1.0000
  O   O20       1.0  0.04410  0.11340  0.83720  1.0000
  O   O21       1.0  0.50510  0.49100  0.24530  1.0000
  O   O22       1.0  0.99490  0.50900  0.74530  1.0000
  O   O23       1.0  0.49490  0.99100  0.25470  1.0000
  O   O24       1.0  0.00510  0.00900  0.75470  1.0000
  O   O25       1.0  0.78250  0.90840  0.10760  1.0000
  O   O26       1.0  0.71750  0.09160  0.60760  1.0000
  O   O27       1.0  0.21750  0.40840  0.39240  1.0000
  O   O28       1.0  0.28250  0.59160  0.89240  1.0000
  O   O29       1.0  0.68030  0.00090  0.16470  1.0000
  O   O30       1.0  0.81970  0.99910  0.66470  1.0000
  O   O31       1.0  0.31970  0.50090  0.33530  1.0000
  O   O32       1.0  0.18030  0.49910  0.83530  1.0000
  O   O33       1.0  0.78270  0.31270  0.11850  1.0000
  O   O34       1.0  0.71730  0.68730  0.61850  1.0000
  O   O35       1.0  0.21730  0.81270  0.38150  1.0000
  O   O36       1.0  0.28270  0.18730  0.88150  1.0000
  O   O37       1.0  0.76240  0.35230  0.00710  1.0000
  O   O38       1.0  0.73760  0.64770  0.50710  1.0000
  O   O39       1.0  0.23760  0.85230  0.49290  1.0000
  O   O40       1.0  0.26240  0.14770  0.99290  1.0000
  O   O41       1.0  0.81920  0.13380  0.81020  1.0000
  O   O42       1.0  0.68080  0.86620  0.31020  1.0000
  O   O43       1.0  0.18080  0.63380  0.68980  1.0000
  O   O44       1.0  0.31920  0.36620  0.18980  1.0000
  O   O45       1.0  0.81660  0.99200  0.84270  1.0000
  O   O46       1.0  0.68340  0.00800  0.34270  1.0000
  O   O47       1.0  0.18340  0.49200  0.65730  1.0000
  O   O48       1.0  0.31660  0.50800  0.15730  1.0000
  N   N1        1.0  0.57400  0.54460  0.91900  1.0000
  N   N2        1.0  0.92600  0.45540  0.41900  1.0000
  N   N3        1.0  0.42600  0.04460  0.58100  1.0000
  N   N4        1.0  0.07400  0.95540  0.08100  1.0000
  N   N5        1.0  0.77190  0.29660  0.05380  1.0000
  N   N6        1.0  0.72810  0.70340  0.55380  1.0000
  N   N7        1.0  0.22810  0.79660  0.44620  1.0000
  N   N8        1.0  0.27190  0.20340  0.94620  1.0000
  C   C1        1.0  0.56050  0.68890  0.08850  1.0000
  C   C2        1.0  0.93950  0.31110  0.58850  1.0000
  C   C3        1.0  0.43950  0.18890  0.41150  1.0000
  C   C4        1.0  0.06050  0.81110  0.91150  1.0000
  C   C5        1.0  0.56550  0.66220  0.01420  1.0000
  C   C6        1.0  0.93450  0.33780  0.51420  1.0000
  C   C7        1.0  0.43450  0.16220  0.48580  1.0000
  C   C8        1.0  0.06550  0.83780  0.98580  1.0000
  H   H1        1.0  0.56870  0.70410  0.97650  1.0000
  H   H2        1.0  0.93130  0.29590  0.47650  1.0000
  H   H3        1.0  0.43130  0.20410  0.52350  1.0000
  H   H4        1.0  0.06870  0.79590  0.02350  1.0000
  C   C9        1.0  0.56530  0.57240  0.99780  1.0000
  C   C10       1.0  0.93470  0.42760  0.49780  1.0000
  C   C11       1.0  0.43470  0.07240  0.50220  1.0000
  C   C12       1.0  0.06530  0.92760  0.00220  1.0000
  C   C13       1.0  0.55990  0.50790  0.05000  1.0000
  C   C14       1.0  0.94010  0.49210  0.55000  1.0000
  C   C15       1.0  0.44010  0.00790  0.45000  1.0000
  C   C16       1.0  0.05990  0.99210  0.95000  1.0000
  H   H5        1.0  0.56160  0.44830  0.03720  1.0000
  H   H6        1.0  0.93840  0.55170  0.53720  1.0000
  H   H7        1.0  0.43840  0.94830  0.46280  1.0000
  H   H8        1.0  0.06160  0.05170  0.96280  1.0000
  C   C17       1.0  0.55160  0.53460  0.12410  1.0000
  C   C18       1.0  0.94840  0.46540  0.62410  1.0000
  C   C19       1.0  0.44840  0.03460  0.37590  1.0000
  C   C20       1.0  0.05160  0.96540  0.87590  1.0000
  C   C21       1.0  0.55400  0.62340  0.14210  1.0000
  C   C22       1.0  0.94600  0.37660  0.64210  1.0000
  C   C23       1.0  0.44600  0.12340  0.35790  1.0000
  C   C24       1.0  0.05400  0.87660  0.85790  1.0000
  H   H9        1.0  0.55120  0.63980  0.19170  1.0000
  H   H10       1.0  0.94880  0.36020  0.69170  1.0000
  H   H11       1.0  0.44880  0.13980  0.30830  1.0000
  H   H12       1.0  0.05120  0.86020  0.80830  1.0000
  C   C25       1.0  0.56430  0.78760  0.10880  1.0000
  C   C26       1.0  0.93570  0.21240  0.60880  1.0000
  C   C27       1.0  0.43570  0.28760  0.39120  1.0000
  C   C28       1.0  0.06430  0.71240  0.89120  1.0000
  C   C29       1.0  0.53370  0.46350  0.18090  1.0000
  C   C30       1.0  0.96630  0.53650  0.68090  1.0000
  C   C31       1.0  0.46630  0.96350  0.31910  1.0000
  C   C32       1.0  0.03370  0.03650  0.81910  1.0000
  C   C33       1.0  0.76280  0.05520  0.06110  1.0000
  C   C34       1.0  0.73720  0.94480  0.56110  1.0000
  C   C35       1.0  0.23720  0.55520  0.43890  1.0000
  C   C36       1.0  0.26280  0.44480  0.93890  1.0000
  C   C37       1.0  0.75770  0.14180  0.08280  1.0000
  C   C38       1.0  0.74230  0.85820  0.58280  1.0000
  C   C39       1.0  0.24230  0.64180  0.41720  1.0000
  C   C40       1.0  0.25770  0.35820  0.91720  1.0000
  H   H13       1.0  0.74330  0.15680  0.13150  1.0000
  H   H14       1.0  0.75670  0.84320  0.63150  1.0000
  H   H15       1.0  0.25670  0.65680  0.36850  1.0000
  H   H16       1.0  0.24330  0.34320  0.86850  1.0000
  C   C41       1.0  0.77440  0.20550  0.03070  1.0000
  C   C42       1.0  0.72560  0.79450  0.53070  1.0000
  C   C43       1.0  0.22560  0.70550  0.46930  1.0000
  C   C44       1.0  0.27440  0.29450  0.96930  1.0000
  C   C45       1.0  0.79090  0.18620  0.95900  1.0000
  C   C46       1.0  0.70910  0.81380  0.45900  1.0000
  C   C47       1.0  0.20910  0.68620  0.54100  1.0000
  C   C48       1.0  0.29090  0.31380  0.04100  1.0000
  H   H17       1.0  0.80050  0.23160  0.92500  1.0000
  H   H18       1.0  0.69950  0.76840  0.42500  1.0000
  H   H19       1.0  0.19950  0.73160  0.57500  1.0000
  H   H20       1.0  0.30050  0.26840  0.07500  1.0000
  C   C49       1.0  0.79370  0.09970  0.93630  1.0000
  C   C50       1.0  0.70630  0.90030  0.43630  1.0000
  C   C51       1.0  0.20630  0.59970  0.56370  1.0000
  C   C52       1.0  0.29370  0.40030  0.06370  1.0000
  C   C53       1.0  0.78150  0.03460  0.98940  1.0000
  C   C54       1.0  0.71850  0.96540  0.48940  1.0000
  C   C55       1.0  0.21850  0.53460  0.51060  1.0000
  C   C56       1.0  0.28150  0.46540  0.01060  1.0000
  H   H21       1.0  0.78620  0.97540  0.97560  1.0000
  H   H22       1.0  0.71380  0.02460  0.47560  1.0000
  H   H23       1.0  0.21380  0.47540  0.52440  1.0000
  H   H24       1.0  0.28620  0.52460  0.02440  1.0000
  C   C57       1.0  0.74220  0.98230  0.11530  1.0000
  C   C58       1.0  0.75780  0.01770  0.61530  1.0000
  C   C59       1.0  0.25780  0.48230  0.38470  1.0000
  C   C60       1.0  0.24220  0.51770  0.88470  1.0000
  C   C61       1.0  0.81070  0.07200  0.85720  1.0000
  C   C62       1.0  0.68930  0.92800  0.35720  1.0000
  C   C63       1.0  0.18930  0.57200  0.64280  1.0000
  C   C64       1.0  0.31070  0.42800  0.14280  1.0000
