data_image0
_chemical_formula_structural       Zn12O72N24C12H6C12H6C6H6C6H6C6H6C6H6C6H6C6H6C18H6C12H6C6H6C36H6C12H6C6H6C18
_chemical_formula_sum              "Zn12 O72 N24 C168 H84"
_cell_length_a       19.91
_cell_length_b       19.91
_cell_length_c       20.117
_cell_angle_alpha    90
_cell_angle_beta     90
_cell_angle_gamma    120

_space_group_name_H-M_alt    "P 1"
_space_group_IT_number       1

loop_
  _space_group_symop_operation_xyz
  'x, y, z'

loop_
  _atom_site_type_symbol
  _atom_site_label
  _atom_site_symmetry_multiplicity
  _atom_site_fract_x
  _atom_site_fract_y
  _atom_site_fract_z
  _atom_site_occupancy
  Zn  Zn1       1.0  0.05876  0.29351  0.51888  1.0000
  Zn  Zn2       1.0  0.76525  0.05876  0.01888  1.0000
  Zn  Zn3       1.0  0.70649  0.76525  0.51888  1.0000
  Zn  Zn4       1.0  0.94124  0.70649  0.01888  1.0000
  Zn  Zn5       1.0  0.23475  0.94124  0.51888  1.0000
  Zn  Zn6       1.0  0.29351  0.23475  0.01888  1.0000
  Zn  Zn7       1.0  0.27477  0.37214  0.63917  1.0000
  Zn  Zn8       1.0  0.90263  0.27477  0.13917  1.0000
  Zn  Zn9       1.0  0.62786  0.90263  0.63917  1.0000
  Zn  Zn10      1.0  0.72523  0.62786  0.13917  1.0000
  Zn  Zn11      1.0  0.09737  0.72523  0.63917  1.0000
  Zn  Zn12      1.0  0.37214  0.09737  0.13917  1.0000
  O   O1        1.0  0.29900  0.41040  0.54830  1.0000
  O   O2        1.0  0.88860  0.29900  0.04830  1.0000
  O   O3        1.0  0.58960  0.88860  0.54830  1.0000
  O   O4        1.0  0.70100  0.58960  0.04830  1.0000
  O   O5        1.0  0.11140  0.70100  0.54830  1.0000
  O   O6        1.0  0.41040  0.11140  0.04830  1.0000
  O   O7        1.0  0.31730  0.42120  0.44010  1.0000
  O   O8        1.0  0.89610  0.31730  0.94010  1.0000
  O   O9        1.0  0.57880  0.89610  0.44010  1.0000
  O   O10       1.0  0.68270  0.57880  0.94010  1.0000
  O   O11       1.0  0.10390  0.68270  0.44010  1.0000
  O   O12       1.0  0.42120  0.10390  0.94010  1.0000
  O   O13       1.0  0.15180  0.28980  0.49210  1.0000
  O   O14       1.0  0.86200  0.15180  0.99210  1.0000
  O   O15       1.0  0.71020  0.86200  0.49210  1.0000
  O   O16       1.0  0.84820  0.71020  0.99210  1.0000
  O   O17       1.0  0.13800  0.84820  0.49210  1.0000
  O   O18       1.0  0.28980  0.13800  0.99210  1.0000
  O   O19       1.0  0.09580  0.16240  0.49520  1.0000
  O   O20       1.0  0.93340  0.09580  0.99520  1.0000
  O   O21       1.0  0.83760  0.93340  0.49520  1.0000
  O   O22       1.0  0.90420  0.83760  0.99520  1.0000
  O   O23       1.0  0.06660  0.90420  0.49520  1.0000
  O   O24       1.0  0.16240  0.06660  0.99520  1.0000
  O   O25       1.0  0.25210  0.03540  0.47730  1.0000
  O   O26       1.0  0.21670  0.25210  0.97730  1.0000
  O   O27       1.0  0.96460  0.21670  0.47730  1.0000
  O   O28       1.0  0.74790  0.96460  0.97730  1.0000
  O   O29       1.0  0.78330  0.74790  0.47730  1.0000
  O   O30       1.0  0.03540  0.78330  0.97730  1.0000
  O   O31       1.0  0.37730  0.10210  0.50440  1.0000
  O   O32       1.0  0.27520  0.37730  0.00440  1.0000
  O   O33       1.0  0.89790  0.27520  0.50440  1.0000
  O   O34       1.0  0.62270  0.89790  0.00440  1.0000
  O   O35       1.0  0.72480  0.62270  0.50440  1.0000
  O   O36       1.0  0.10210  0.72480  0.00440  1.0000
  O   O37       1.0  0.03350  0.25350  0.60910  1.0000
  O   O38       1.0  0.78000  0.03350  0.10910  1.0000
  O   O39       1.0  0.74650  0.78000  0.60910  1.0000
  O   O40       1.0  0.96650  0.74650  0.10910  1.0000
  O   O41       1.0  0.22000  0.96650  0.60910  1.0000
  O   O42       1.0  0.25350  0.22000  0.10910  1.0000
  O   O43       1.0  0.01200  0.24560  0.71700  1.0000
  O   O44       1.0  0.76640  0.01200  0.21700  1.0000
  O   O45       1.0  0.75440  0.76640  0.71700  1.0000
  O   O46       1.0  0.98800  0.75440  0.21700  1.0000
  O   O47       1.0  0.23360  0.98800  0.71700  1.0000
  O   O48       1.0  0.24560  0.23360  0.21700  1.0000
  O   O49       1.0  0.18150  0.37650  0.66800  1.0000
  O   O50       1.0  0.80500  0.18150  0.16800  1.0000
  O   O51       1.0  0.62350  0.80500  0.66800  1.0000
  O   O52       1.0  0.81850  0.62350  0.16800  1.0000
  O   O53       1.0  0.19500  0.81850  0.66800  1.0000
  O   O54       1.0  0.37650  0.19500  0.16800  1.0000
  O   O55       1.0  0.23760  0.50340  0.66920  1.0000
  O   O56       1.0  0.73420  0.23760  0.16920  1.0000
  O   O57       1.0  0.49660  0.73420  0.66920  1.0000
  O   O58       1.0  0.76240  0.49660  0.16920  1.0000
  O   O59       1.0  0.26580  0.76240  0.66920  1.0000
  O   O60       1.0  0.50340  0.26580  0.16920  1.0000
  O   O61       1.0  0.08190  0.63070  0.68080  1.0000
  O   O62       1.0  0.45120  0.08190  0.18080  1.0000
  O   O63       1.0  0.36930  0.45120  0.68080  1.0000
  O   O64       1.0  0.91810  0.36930  0.18080  1.0000
  O   O65       1.0  0.54880  0.91810  0.68080  1.0000
  O   O66       1.0  0.63070  0.54880  0.18080  1.0000
  O   O67       1.0  0.95780  0.56570  0.65070  1.0000
  O   O68       1.0  0.39210  0.95780  0.15070  1.0000
  O   O69       1.0  0.43430  0.39210  0.65070  1.0000
  O   O70       1.0  0.04220  0.43430  0.15070  1.0000
  O   O71       1.0  0.60790  0.04220  0.65070  1.0000
  O   O72       1.0  0.56570  0.60790  0.15070  1.0000
  N   N1        1.0  0.18760  0.53020  0.50370  1.0000
  N   N2        1.0  0.65740  0.18760  0.00370  1.0000
  N   N3        1.0  0.46980  0.65740  0.50370  1.0000
  N   N4        1.0  0.81240  0.46980  0.00370  1.0000
  N   N5        1.0  0.34260  0.81240  0.50370  1.0000
  N   N6        1.0  0.53020  0.34260  0.00370  1.0000
  N   N7        1.0  0.09970  0.40610  0.50620  1.0000
  N   N8        1.0  0.69360  0.09970  0.00620  1.0000
  N   N9        1.0  0.59390  0.69360  0.50620  1.0000
  N   N10       1.0  0.90030  0.59390  0.00620  1.0000
  N   N11       1.0  0.30640  0.90030  0.50620  1.0000
  N   N12       1.0  0.40610  0.30640  0.00620  1.0000
  N   N13       1.0  0.14580  0.13420  0.65460  1.0000
  N   N14       1.0  0.01160  0.14580  0.15460  1.0000
  N   N15       1.0  0.86580  0.01160  0.65460  1.0000
  N   N16       1.0  0.85420  0.86580  0.15460  1.0000
  N   N17       1.0  0.98840  0.85420  0.65460  1.0000
  N   N18       1.0  0.13420  0.98840  0.15460  1.0000
  N   N19       1.0  0.23310  0.25840  0.65130  1.0000
  N   N20       1.0  0.97470  0.23310  0.15130  1.0000
  N   N21       1.0  0.74160  0.97470  0.65130  1.0000
  N   N22       1.0  0.76690  0.74160  0.15130  1.0000
  N   N23       1.0  0.02530  0.76690  0.65130  1.0000
  N   N24       1.0  0.25840  0.02530  0.15130  1.0000
  C   C1        1.0  0.26190  0.60050  0.50460  1.0000
  C   C2        1.0  0.66140  0.26190  0.00460  1.0000
  C   C3        1.0  0.39950  0.66140  0.50460  1.0000
  C   C4        1.0  0.73810  0.39950  0.00460  1.0000
  C   C5        1.0  0.33860  0.73810  0.50460  1.0000
  C   C6        1.0  0.60050  0.33860  0.00460  1.0000
  C   C7        1.0  0.32960  0.59440  0.50520  1.0000
  C   C8        1.0  0.73520  0.32960  0.00520  1.0000
  C   C9        1.0  0.40560  0.73520  0.50520  1.0000
  C   C10       1.0  0.67040  0.40560  0.00520  1.0000
  C   C11       1.0  0.26480  0.67040  0.50520  1.0000
  C   C12       1.0  0.59440  0.26480  0.00520  1.0000
  H   H1        1.0  0.32660  0.54530  0.50580  1.0000
  H   H2        1.0  0.78130  0.32660  0.00580  1.0000
  H   H3        1.0  0.45470  0.78130  0.50580  1.0000
  H   H4        1.0  0.67340  0.45470  0.00580  1.0000
  H   H5        1.0  0.21870  0.67340  0.50580  1.0000
  H   H6        1.0  0.54530  0.21870  0.00580  1.0000
  C   C13       1.0  0.07210  0.06640  0.65390  1.0000
  C   C14       1.0  0.00570  0.07210  0.15390  1.0000
  C   C15       1.0  0.93360  0.00570  0.65390  1.0000
  C   C16       1.0  0.92790  0.93360  0.15390  1.0000
  C   C17       1.0  0.99430  0.92790  0.65390  1.0000
  C   C18       1.0  0.06640  0.99430  0.15390  1.0000
  C   C19       1.0  0.06720  0.99490  0.65380  1.0000
  C   C20       1.0  0.07230  0.06720  0.15380  1.0000
  C   C21       1.0  0.00510  0.07230  0.65380  1.0000
  C   C22       1.0  0.93280  0.00510  0.15380  1.0000
  C   C23       1.0  0.92770  0.93280  0.65380  1.0000
  C   C24       1.0  0.99490  0.92770  0.15380  1.0000
  H   H7        1.0  0.11300  0.99120  0.65360  1.0000
  H   H8        1.0  0.12180  0.11300  0.15360  1.0000
  H   H9        1.0  0.00880  0.12180  0.65360  1.0000
  H   H10       1.0  0.88700  0.00880  0.15360  1.0000
  H   H11       1.0  0.87820  0.88700  0.65360  1.0000
  H   H12       1.0  0.99120  0.87820  0.15360  1.0000
  C   C25       1.0  0.17480  0.45870  0.51110  1.0000
  C   C26       1.0  0.71610  0.17480  0.01110  1.0000
  C   C27       1.0  0.54130  0.71610  0.51110  1.0000
  C   C28       1.0  0.82520  0.54130  0.01110  1.0000
  C   C29       1.0  0.28390  0.82520  0.51110  1.0000
  C   C30       1.0  0.45870  0.28390  0.01110  1.0000
  H   H13       1.0  0.21440  0.44630  0.51890  1.0000
  H   H14       1.0  0.76810  0.21440  0.01890  1.0000
  H   H15       1.0  0.55370  0.76810  0.51890  1.0000
  H   H16       1.0  0.78560  0.55370  0.01890  1.0000
  H   H17       1.0  0.23190  0.78560  0.51890  1.0000
  H   H18       1.0  0.44630  0.23190  0.01890  1.0000
  C   C31       1.0  0.06420  0.44980  0.49600  1.0000
  C   C32       1.0  0.61440  0.06420  0.99600  1.0000
  C   C33       1.0  0.55020  0.61440  0.49600  1.0000
  C   C34       1.0  0.93580  0.55020  0.99600  1.0000
  C   C35       1.0  0.38560  0.93580  0.49600  1.0000
  C   C36       1.0  0.44980  0.38560  0.99600  1.0000
  H   H19       1.0  0.00990  0.42890  0.49170  1.0000
  H   H20       1.0  0.58100  0.00990  0.99170  1.0000
  H   H21       1.0  0.57110  0.58100  0.49170  1.0000
  H   H22       1.0  0.99010  0.57110  0.99170  1.0000
  H   H23       1.0  0.41900  0.99010  0.49170  1.0000
  H   H24       1.0  0.42890  0.41900  0.99170  1.0000
  C   C37       1.0  0.11550  0.52360  0.49310  1.0000
  C   C38       1.0  0.59190  0.11550  0.99310  1.0000
  C   C39       1.0  0.47640  0.59190  0.49310  1.0000
  C   C40       1.0  0.88450  0.47640  0.99310  1.0000
  C   C41       1.0  0.40810  0.88450  0.49310  1.0000
  C   C42       1.0  0.52360  0.40810  0.99310  1.0000
  H   H25       1.0  0.10540  0.56480  0.48520  1.0000
  H   H26       1.0  0.54060  0.10540  0.98520  1.0000
  H   H27       1.0  0.43520  0.54060  0.48520  1.0000
  H   H28       1.0  0.89460  0.43520  0.98520  1.0000
  H   H29       1.0  0.45940  0.89460  0.48520  1.0000
  H   H30       1.0  0.56480  0.45940  0.98520  1.0000
  C   C43       1.0  0.15990  0.20840  0.64760  1.0000
  C   C44       1.0  0.95150  0.15990  0.14760  1.0000
  C   C45       1.0  0.79160  0.95150  0.64760  1.0000
  C   C46       1.0  0.84010  0.79160  0.14760  1.0000
  C   C47       1.0  0.04850  0.84010  0.64760  1.0000
  C   C48       1.0  0.20840  0.04850  0.14760  1.0000
  H   H31       1.0  0.12070  0.22160  0.64090  1.0000
  H   H32       1.0  0.89910  0.12070  0.14090  1.0000
  H   H33       1.0  0.77840  0.89910  0.64090  1.0000
  H   H34       1.0  0.87930  0.77840  0.14090  1.0000
  H   H35       1.0  0.10090  0.87930  0.64090  1.0000
  H   H36       1.0  0.22160  0.10090  0.14090  1.0000
  C   C49       1.0  0.27130  0.21720  0.66120  1.0000
  C   C50       1.0  0.05410  0.27130  0.16120  1.0000
  C   C51       1.0  0.78280  0.05410  0.66120  1.0000
  C   C52       1.0  0.72870  0.78280  0.16120  1.0000
  C   C53       1.0  0.94590  0.72870  0.66120  1.0000
  C   C54       1.0  0.21720  0.94590  0.16120  1.0000
  H   H37       1.0  0.32590  0.23910  0.66500  1.0000
  H   H38       1.0  0.08680  0.32590  0.16500  1.0000
  H   H39       1.0  0.76090  0.08680  0.66500  1.0000
  H   H40       1.0  0.67410  0.76090  0.16500  1.0000
  H   H41       1.0  0.91320  0.67410  0.66500  1.0000
  H   H42       1.0  0.23910  0.91320  0.16500  1.0000
  C   C55       1.0  0.21780  0.14000  0.66470  1.0000
  C   C56       1.0  0.07780  0.21780  0.16470  1.0000
  C   C57       1.0  0.86000  0.07780  0.66470  1.0000
  C   C58       1.0  0.78220  0.86000  0.16470  1.0000
  C   C59       1.0  0.92220  0.78220  0.66470  1.0000
  C   C60       1.0  0.14000  0.92220  0.16470  1.0000
  H   H43       1.0  0.22780  0.09870  0.67240  1.0000
  H   H44       1.0  0.12910  0.22780  0.17240  1.0000
  H   H45       1.0  0.90130  0.12910  0.67240  1.0000
  H   H46       1.0  0.77220  0.90130  0.17240  1.0000
  H   H47       1.0  0.87090  0.77220  0.67240  1.0000
  H   H48       1.0  0.09870  0.87090  0.17240  1.0000
  C   C61       1.0  0.30170  0.30680  0.49030  1.0000
  C   C62       1.0  0.99490  0.30170  0.99030  1.0000
  C   C63       1.0  0.69320  0.99490  0.49030  1.0000
  C   C64       1.0  0.69830  0.69320  0.99030  1.0000
  C   C65       1.0  0.00510  0.69830  0.49030  1.0000
  C   C66       1.0  0.30680  0.00510  0.99030  1.0000
  C   C67       1.0  0.23290  0.23510  0.48910  1.0000
  C   C68       1.0  0.99780  0.23290  0.98910  1.0000
  C   C69       1.0  0.76490  0.99780  0.48910  1.0000
  C   C70       1.0  0.76710  0.76490  0.98910  1.0000
  C   C71       1.0  0.00220  0.76710  0.48910  1.0000
  C   C72       1.0  0.23510  0.00220  0.98910  1.0000
  C   C73       1.0  0.23970  0.16880  0.48650  1.0000
  C   C74       1.0  0.07090  0.23970  0.98650  1.0000
  C   C75       1.0  0.83120  0.07090  0.48650  1.0000
  C   C76       1.0  0.76030  0.83120  0.98650  1.0000
  C   C77       1.0  0.92910  0.76030  0.48650  1.0000
  C   C78       1.0  0.16880  0.92910  0.98650  1.0000
  H   H49       1.0  0.19340  0.11980  0.48530  1.0000
  H   H50       1.0  0.07360  0.19340  0.98530  1.0000
  H   H51       1.0  0.88020  0.07360  0.48530  1.0000
  H   H52       1.0  0.80660  0.88020  0.98530  1.0000
  H   H53       1.0  0.92640  0.80660  0.48530  1.0000
  H   H54       1.0  0.11980  0.92640  0.98530  1.0000
  C   C79       1.0  0.31030  0.17030  0.48570  1.0000
  C   C80       1.0  0.14000  0.31030  0.98570  1.0000
  C   C81       1.0  0.82970  0.14000  0.48570  1.0000
  C   C82       1.0  0.68970  0.82970  0.98570  1.0000
  C   C83       1.0  0.86000  0.68970  0.48570  1.0000
  C   C84       1.0  0.17030  0.86000  0.98570  1.0000
  C   C85       1.0  0.37750  0.24360  0.48520  1.0000
  C   C86       1.0  0.13390  0.37750  0.98520  1.0000
  C   C87       1.0  0.75640  0.13390  0.48520  1.0000
  C   C88       1.0  0.62250  0.75640  0.98520  1.0000
  C   C89       1.0  0.86610  0.62250  0.48520  1.0000
  C   C90       1.0  0.24360  0.86610  0.98520  1.0000
  H   H55       1.0  0.42680  0.24690  0.48410  1.0000
  H   H56       1.0  0.17990  0.42680  0.98410  1.0000
  H   H57       1.0  0.75310  0.17990  0.48410  1.0000
  H   H58       1.0  0.57320  0.75310  0.98410  1.0000
  H   H59       1.0  0.82010  0.57320  0.48410  1.0000
  H   H60       1.0  0.24690  0.82010  0.98410  1.0000
  C   C91       1.0  0.37360  0.31120  0.48640  1.0000
  C   C92       1.0  0.06240  0.37360  0.98640  1.0000
  C   C93       1.0  0.68880  0.06240  0.48640  1.0000
  C   C94       1.0  0.62640  0.68880  0.98640  1.0000
  C   C95       1.0  0.93760  0.62640  0.48640  1.0000
  C   C96       1.0  0.31120  0.93760  0.98640  1.0000
  H   H61       1.0  0.41970  0.36020  0.48450  1.0000
  H   H62       1.0  0.05950  0.41970  0.98450  1.0000
  H   H63       1.0  0.63980  0.05950  0.48450  1.0000
  H   H64       1.0  0.58030  0.63980  0.98450  1.0000
  H   H65       1.0  0.94050  0.58030  0.48450  1.0000
  H   H66       1.0  0.36020  0.94050  0.98450  1.0000
  C   C97       1.0  0.30460  0.38390  0.49300  1.0000
  C   C98       1.0  0.92070  0.30460  0.99300  1.0000
  C   C99       1.0  0.61610  0.92070  0.49300  1.0000
  C   C100      1.0  0.69540  0.61610  0.99300  1.0000
  C   C101      1.0  0.07930  0.69540  0.49300  1.0000
  C   C102      1.0  0.38390  0.07930  0.99300  1.0000
  C   C103      1.0  0.15510  0.22750  0.49260  1.0000
  C   C104      1.0  0.92760  0.15510  0.99260  1.0000
  C   C105      1.0  0.77250  0.92760  0.49260  1.0000
  C   C106      1.0  0.84490  0.77250  0.99260  1.0000
  C   C107      1.0  0.07240  0.84490  0.49260  1.0000
  C   C108      1.0  0.22750  0.07240  0.99260  1.0000
  C   C109      1.0  0.31660  0.09920  0.48790  1.0000
  C   C110      1.0  0.21740  0.31660  0.98790  1.0000
  C   C111      1.0  0.90080  0.21740  0.48790  1.0000
  C   C112      1.0  0.68340  0.90080  0.98790  1.0000
  C   C113      1.0  0.78260  0.68340  0.48790  1.0000
  C   C114      1.0  0.09920  0.78260  0.98790  1.0000
  C   C115      1.0  0.03140  0.36050  0.66590  1.0000
  C   C116      1.0  0.67090  0.03140  0.16590  1.0000
  C   C117      1.0  0.63950  0.67090  0.66590  1.0000
  C   C118      1.0  0.96860  0.63950  0.16590  1.0000
  C   C119      1.0  0.32910  0.96860  0.66590  1.0000
  C   C120      1.0  0.36050  0.32910  0.16590  1.0000
  C   C121      1.0  0.10070  0.43140  0.66980  1.0000
  C   C122      1.0  0.66930  0.10070  0.16980  1.0000
  C   C123      1.0  0.56860  0.66930  0.66980  1.0000
  C   C124      1.0  0.89930  0.56860  0.16980  1.0000
  C   C125      1.0  0.33070  0.89930  0.66980  1.0000
  C   C126      1.0  0.43140  0.33070  0.16980  1.0000
  C   C127      1.0  0.09510  0.49900  0.67280  1.0000
  C   C128      1.0  0.59610  0.09510  0.17280  1.0000
  C   C129      1.0  0.50100  0.59610  0.67280  1.0000
  C   C130      1.0  0.90490  0.50100  0.17280  1.0000
  C   C131      1.0  0.40390  0.90490  0.67280  1.0000
  C   C132      1.0  0.49900  0.40390  0.17280  1.0000
  H   H67       1.0  0.14090  0.54780  0.67840  1.0000
  H   H68       1.0  0.59310  0.14090  0.17840  1.0000
  H   H69       1.0  0.45220  0.59310  0.67840  1.0000
  H   H70       1.0  0.85910  0.45220  0.17840  1.0000
  H   H71       1.0  0.40690  0.85910  0.67840  1.0000
  H   H72       1.0  0.54780  0.40690  0.17840  1.0000
  C   C133      1.0  0.02340  0.49610  0.66780  1.0000
  C   C134      1.0  0.52730  0.02340  0.16780  1.0000
  C   C135      1.0  0.50390  0.52730  0.66780  1.0000
  C   C136      1.0  0.97660  0.50390  0.16780  1.0000
  C   C137      1.0  0.47270  0.97660  0.66780  1.0000
  C   C138      1.0  0.49610  0.47270  0.16780  1.0000
  C   C139      1.0  0.95640  0.42310  0.66290  1.0000
  C   C140      1.0  0.53330  0.95640  0.16290  1.0000
  C   C141      1.0  0.57690  0.53330  0.66290  1.0000
  C   C142      1.0  0.04360  0.57690  0.16290  1.0000
  C   C143      1.0  0.46670  0.04360  0.66290  1.0000
  C   C144      1.0  0.42310  0.46670  0.16290  1.0000
  H   H73       1.0  0.90710  0.41970  0.66030  1.0000
  H   H74       1.0  0.48740  0.90710  0.16030  1.0000
  H   H75       1.0  0.58030  0.48740  0.66030  1.0000
  H   H76       1.0  0.09290  0.58030  0.16030  1.0000
  H   H77       1.0  0.51260  0.09290  0.66030  1.0000
  H   H78       1.0  0.41970  0.51260  0.16030  1.0000
  C   C145      1.0  0.96040  0.35750  0.66170  1.0000
  C   C146      1.0  0.60290  0.96040  0.16170  1.0000
  C   C147      1.0  0.64250  0.60290  0.66170  1.0000
  C   C148      1.0  0.03960  0.64250  0.16170  1.0000
  C   C149      1.0  0.39710  0.03960  0.66170  1.0000
  C   C150      1.0  0.35750  0.39710  0.16170  1.0000
  H   H79       1.0  0.91410  0.30870  0.65800  1.0000
  H   H80       1.0  0.60540  0.91410  0.15800  1.0000
  H   H81       1.0  0.69130  0.60540  0.65800  1.0000
  H   H82       1.0  0.08590  0.69130  0.15800  1.0000
  H   H83       1.0  0.39460  0.08590  0.65800  1.0000
  H   H84       1.0  0.30870  0.39460  0.15800  1.0000
  C   C151      1.0  0.02760  0.28220  0.66360  1.0000
  C   C152      1.0  0.74540  0.02760  0.16360  1.0000
  C   C153      1.0  0.71780  0.74540  0.66360  1.0000
  C   C154      1.0  0.97240  0.71780  0.16360  1.0000
  C   C155      1.0  0.25460  0.97240  0.66360  1.0000
  C   C156      1.0  0.28220  0.25460  0.16360  1.0000
  C   C157      1.0  0.17990  0.43800  0.66950  1.0000
  C   C158      1.0  0.74190  0.17990  0.16950  1.0000
  C   C159      1.0  0.56200  0.74190  0.66950  1.0000
  C   C160      1.0  0.82010  0.56200  0.16950  1.0000
  C   C161      1.0  0.25810  0.82010  0.66950  1.0000
  C   C162      1.0  0.43800  0.25810  0.16950  1.0000
  C   C163      1.0  0.01770  0.56870  0.66540  1.0000
  C   C164      1.0  0.44900  0.01770  0.16540  1.0000
  C   C165      1.0  0.43130  0.44900  0.66540  1.0000
  C   C166      1.0  0.98230  0.43130  0.16540  1.0000
  C   C167      1.0  0.55100  0.98230  0.66540  1.0000
  C   C168      1.0  0.56870  0.55100  0.16540  1.0000
