data_image0
_chemical_formula_structural       Cu4O8N4O20N4O4C20H4C4H4C16H4C8H4C4H4C4H4
_chemical_formula_sum              "Cu4 O32 N8 C56 H24"
_cell_length_a       16.82
_cell_length_b       6.71
_cell_length_c       24.1462
_cell_angle_alpha    90
_cell_angle_beta     97.676
_cell_angle_gamma    90

_space_group_name_H-M_alt    "P 1"
_space_group_IT_number       1

loop_
  _space_group_symop_operation_xyz
  'x, y, z'

loop_
  _atom_site_type_symbol
  _atom_site_label
  _atom_site_symmetry_multiplicity
  _atom_site_fract_x
  _atom_site_fract_y
  _atom_site_fract_z
  _atom_site_occupancy
  Cu  Cu1       1.0  0.39829  0.21972  0.62596  1.0000
  Cu  Cu2       1.0  0.10171  0.71972  0.87404  1.0000
  Cu  Cu3       1.0  0.60171  0.78028  0.37404  1.0000
  Cu  Cu4       1.0  0.89829  0.28028  0.12596  1.0000
  O   O1        1.0  0.46223  0.38610  0.68296  1.0000
  O   O2        1.0  0.03777  0.88610  0.81704  1.0000
  O   O3        1.0  0.53777  0.61390  0.31704  1.0000
  O   O4        1.0  0.96223  0.11390  0.18296  1.0000
  O   O5        1.0  0.33462  0.06530  0.56749  1.0000
  O   O6        1.0  0.16538  0.56530  0.93251  1.0000
  O   O7        1.0  0.66538  0.93470  0.43251  1.0000
  O   O8        1.0  0.83462  0.43470  0.06749  1.0000
  N   N1        1.0  0.41749  0.43970  0.57614  1.0000
  N   N2        1.0  0.08251  0.93970  0.92386  1.0000
  N   N3        1.0  0.58251  0.56030  0.42386  1.0000
  N   N4        1.0  0.91749  0.06030  0.07614  1.0000
  O   O9        1.0  0.52672  0.05910  0.61054  1.0000
  O   O10       1.0  0.97328  0.55910  0.88946  1.0000
  O   O11       1.0  0.47328  0.94090  0.38946  1.0000
  O   O12       1.0  0.02672  0.44090  0.11054  1.0000
  O   O13       1.0  0.26500  0.78510  0.55240  1.0000
  O   O14       1.0  0.23500  0.28510  0.94760  1.0000
  O   O15       1.0  0.73500  0.21490  0.44760  1.0000
  O   O16       1.0  0.76500  0.71490  0.05240  1.0000
  O   O17       1.0  0.62630  0.85570  0.59269  1.0000
  O   O18       1.0  0.87370  0.35570  0.90731  1.0000
  O   O19       1.0  0.37370  0.14430  0.40731  1.0000
  O   O20       1.0  0.12630  0.64430  0.09269  1.0000
  O   O21       1.0  0.16312  0.61290  0.62923  1.0000
  O   O22       1.0  0.33688  0.11290  0.87077  1.0000
  O   O23       1.0  0.83688  0.38710  0.37077  1.0000
  O   O24       1.0  0.66312  0.88710  0.12923  1.0000
  O   O25       1.0  0.25775  0.37710  0.63470  1.0000
  O   O26       1.0  0.24225  0.87710  0.86530  1.0000
  O   O27       1.0  0.74225  0.62290  0.36530  1.0000
  O   O28       1.0  0.75775  0.12290  0.13470  1.0000
  N   N5        1.0  0.36996  0.00120  0.67437  1.0000
  N   N6        1.0  0.13004  0.50120  0.82563  1.0000
  N   N7        1.0  0.63004  0.99880  0.32563  1.0000
  N   N8        1.0  0.86996  0.49880  0.17437  1.0000
  O   O29       1.0  0.53855  0.65850  0.69044  1.0000
  O   O30       1.0  0.96145  0.15850  0.80956  1.0000
  O   O31       1.0  0.46145  0.34150  0.30956  1.0000
  O   O32       1.0  0.03855  0.84150  0.19044  1.0000
  C   C1        1.0  0.32211  0.86240  0.64581  1.0000
  C   C2        1.0  0.17789  0.36240  0.85419  1.0000
  C   C3        1.0  0.67789  0.13760  0.35419  1.0000
  C   C4        1.0  0.82211  0.63760  0.14581  1.0000
  C   C5        1.0  0.49322  0.73990  0.57213  1.0000
  C   C6        1.0  0.00678  0.23990  0.92787  1.0000
  C   C7        1.0  0.50678  0.26010  0.42787  1.0000
  C   C8        1.0  0.99322  0.76010  0.07213  1.0000
  C   C9        1.0  0.55412  0.89760  0.59543  1.0000
  C   C10       1.0  0.94588  0.39760  0.90457  1.0000
  C   C11       1.0  0.44588  0.10240  0.40457  1.0000
  C   C12       1.0  0.05412  0.60240  0.09543  1.0000
  C   C13       1.0  0.46841  0.57940  0.60122  1.0000
  C   C14       1.0  0.03159  0.07940  0.89878  1.0000
  C   C15       1.0  0.53159  0.42060  0.39878  1.0000
  C   C16       1.0  0.96841  0.92060  0.10122  1.0000
  C   C17       1.0  0.40911  0.61490  0.49066  1.0000
  C   C18       1.0  0.09089  0.11490  0.00934  1.0000
  C   C19       1.0  0.59089  0.38510  0.50934  1.0000
  C   C20       1.0  0.90911  0.88510  0.99066  1.0000
  H   H1        1.0  0.38770  0.62690  0.45330  1.0000
  H   H2        1.0  0.11230  0.12690  0.04670  1.0000
  H   H3        1.0  0.61230  0.37310  0.54670  1.0000
  H   H4        1.0  0.88770  0.87310  0.95330  1.0000
  C   C21       1.0  0.46187  0.75390  0.51554  1.0000
  C   C22       1.0  0.03813  0.25390  0.98446  1.0000
  C   C23       1.0  0.53813  0.24610  0.48446  1.0000
  C   C24       1.0  0.96187  0.74610  0.01554  1.0000
  H   H5        1.0  0.47720  0.85970  0.49440  1.0000
  H   H6        1.0  0.02280  0.35970  0.00560  1.0000
  H   H7        1.0  0.52280  0.14030  0.50560  1.0000
  H   H8        1.0  0.97720  0.64030  0.99440  1.0000
  C   C25       1.0  0.49258  0.54140  0.66308  1.0000
  C   C26       1.0  0.00742  0.04140  0.83692  1.0000
  C   C27       1.0  0.50742  0.45860  0.33692  1.0000
  C   C28       1.0  0.99258  0.95860  0.16308  1.0000
  C   C29       1.0  0.30491  0.90410  0.58332  1.0000
  C   C30       1.0  0.19509  0.40410  0.91668  1.0000
  C   C31       1.0  0.69509  0.09590  0.41668  1.0000
  C   C32       1.0  0.80491  0.59590  0.08332  1.0000
  C   C33       1.0  0.29302  0.69890  0.67260  1.0000
  C   C34       1.0  0.20698  0.19890  0.82740  1.0000
  C   C35       1.0  0.70698  0.30110  0.32740  1.0000
  C   C36       1.0  0.79302  0.80110  0.17260  1.0000
  C   C37       1.0  0.38844  0.45610  0.52239  1.0000
  C   C38       1.0  0.11156  0.95610  0.97761  1.0000
  C   C39       1.0  0.61156  0.54390  0.47761  1.0000
  C   C40       1.0  0.88844  0.04390  0.02239  1.0000
  H   H9        1.0  0.35360  0.35900  0.50580  1.0000
  H   H10       1.0  0.14640  0.85900  0.99420  1.0000
  H   H11       1.0  0.64640  0.64100  0.49420  1.0000
  H   H12       1.0  0.85360  0.14100  0.00580  1.0000
  C   C41       1.0  0.23347  0.54990  0.64224  1.0000
  C   C42       1.0  0.26653  0.04990  0.85776  1.0000
  C   C43       1.0  0.76653  0.45010  0.35776  1.0000
  C   C44       1.0  0.73347  0.95010  0.14224  1.0000
  C   C45       1.0  0.36520  0.82180  0.75836  1.0000
  C   C46       1.0  0.13480  0.32180  0.74164  1.0000
  C   C47       1.0  0.63480  0.17820  0.24164  1.0000
  C   C48       1.0  0.86520  0.67820  0.25836  1.0000
  H   H13       1.0  0.38070  0.80960  0.79660  1.0000
  H   H14       1.0  0.11930  0.30960  0.70340  1.0000
  H   H15       1.0  0.61930  0.19040  0.20340  1.0000
  H   H16       1.0  0.88070  0.69040  0.29660  1.0000
  C   C49       1.0  0.39018  0.98260  0.72943  1.0000
  C   C50       1.0  0.10982  0.48260  0.77057  1.0000
  C   C51       1.0  0.60982  0.01740  0.27057  1.0000
  C   C52       1.0  0.89018  0.51740  0.22943  1.0000
  H   H17       1.0  0.42180  0.08020  0.74880  1.0000
  H   H18       1.0  0.07820  0.58020  0.75120  1.0000
  H   H19       1.0  0.57820  0.91980  0.25120  1.0000
  H   H20       1.0  0.92180  0.41980  0.24880  1.0000
  C   C53       1.0  0.31690  0.67960  0.72966  1.0000
  C   C54       1.0  0.18310  0.17960  0.77034  1.0000
  C   C55       1.0  0.68310  0.32040  0.27034  1.0000
  C   C56       1.0  0.81690  0.82040  0.22966  1.0000
  H   H21       1.0  0.30020  0.56990  0.74860  1.0000
  H   H22       1.0  0.19980  0.06990  0.75140  1.0000
  H   H23       1.0  0.69980  0.43010  0.25140  1.0000
  H   H24       1.0  0.80020  0.93010  0.24860  1.0000
