data_image0
_chemical_formula_structural       U5O28C4H6C4H6C4H6C4H6
_chemical_formula_sum              "U5 O28 C16 H24"
_cell_length_a       8.2056
_cell_length_b       10.639
_cell_length_c       10.934
_cell_angle_alpha    87.28
_cell_angle_beta     75.813
_cell_angle_gamma    86.31

_space_group_name_H-M_alt    "P 1"
_space_group_IT_number       1

loop_
  _space_group_symop_operation_xyz
  'x, y, z'

loop_
  _atom_site_type_symbol
  _atom_site_label
  _atom_site_symmetry_multiplicity
  _atom_site_fract_x
  _atom_site_fract_y
  _atom_site_fract_z
  _atom_site_occupancy
  U   U1        1.0  0.00000  0.00000  0.00000  1.0000
  U   U2        1.0  0.37390  0.28103  0.74631  1.0000
  U   U3        1.0  0.62610  0.71897  0.25369  1.0000
  U   U4        1.0  0.35818  0.43556  0.41247  1.0000
  U   U5        1.0  0.64182  0.56444  0.58753  1.0000
  O   O1        1.0  0.14000  0.89870  0.06200  1.0000
  O   O2        1.0  0.86000  0.10130  0.93800  1.0000
  O   O3        1.0  0.54590  0.17900  0.67240  1.0000
  O   O4        1.0  0.45410  0.82100  0.32760  1.0000
  O   O5        1.0  0.19890  0.38040  0.82720  1.0000
  O   O6        1.0  0.80110  0.61960  0.17280  1.0000
  O   O7        1.0  0.51690  0.32490  0.33350  1.0000
  O   O8        1.0  0.48310  0.67510  0.66650  1.0000
  O   O9        1.0  0.19200  0.54610  0.48270  1.0000
  O   O10       1.0  0.80800  0.45390  0.51730  1.0000
  O   O11       1.0  0.44450  0.42630  0.59370  1.0000
  O   O12       1.0  0.55550  0.57370  0.40630  1.0000
  O   O13       1.0  0.41990  0.20610  0.94460  1.0000
  O   O14       1.0  0.58010  0.79390  0.05540  1.0000
  O   O15       1.0  0.15760  0.16460  0.03980  1.0000
  O   O16       1.0  0.84240  0.83540  0.96020  1.0000
  O   O17       1.0  0.22230  0.08130  0.79850  1.0000
  O   O18       1.0  0.77770  0.91870  0.20150  1.0000
  O   O19       1.0  0.13230  0.89400  0.79860  1.0000
  O   O20       1.0  0.86770  0.10600  0.20140  1.0000
  O   O21       1.0  0.57290  0.41830  0.79070  1.0000
  O   O22       1.0  0.42710  0.58170  0.20930  1.0000
  O   O23       1.0  0.76760  0.55100  0.77980  1.0000
  O   O24       1.0  0.23240  0.44900  0.22020  1.0000
  O   O25       1.0  0.22870  0.26080  0.57990  1.0000
  O   O26       1.0  0.77130  0.73920  0.42010  1.0000
  O   O27       1.0  0.12500  0.28260  0.41680  1.0000
  O   O28       1.0  0.87500  0.71740  0.58320  1.0000
  C   C1        1.0  0.31460  0.16520  0.03500  1.0000
  C   C2        1.0  0.68540  0.83480  0.96500  1.0000
  C   C3        1.0  0.36900  0.11740  0.15180  1.0000
  C   C4        1.0  0.63100  0.88260  0.84820  1.0000
  H   H1        1.0  0.41460  0.03230  0.14030  1.0000
  H   H2        1.0  0.58540  0.96770  0.85970  1.0000
  H   H3        1.0  0.27300  0.11970  0.22300  1.0000
  H   H4        1.0  0.72700  0.88030  0.77700  1.0000
  H   H5        1.0  0.45240  0.16970  0.16650  1.0000
  H   H6        1.0  0.54760  0.83030  0.83350  1.0000
  C   C5        1.0  0.22390  0.97910  0.74170  1.0000
  C   C6        1.0  0.77610  0.02090  0.25830  1.0000
  C   C7        1.0  0.33310  0.95860  0.61570  1.0000
  C   C8        1.0  0.66690  0.04140  0.38430  1.0000
  H   H7        1.0  0.30690  0.88160  0.58430  1.0000
  H   H8        1.0  0.69310  0.11840  0.41570  1.0000
  H   H9        1.0  0.44870  0.95320  0.62040  1.0000
  H   H10       1.0  0.55130  0.04680  0.37960  1.0000
  H   H11       1.0  0.31540  0.02770  0.55980  1.0000
  H   H12       1.0  0.68460  0.97230  0.44020  1.0000
  C   C9        1.0  0.68930  0.46120  0.83660  1.0000
  C   C10       1.0  0.31070  0.53880  0.16340  1.0000
  C   C11       1.0  0.72060  0.40410  0.95680  1.0000
  C   C12       1.0  0.27940  0.59590  0.04320  1.0000
  H   H13       1.0  0.83600  0.37310  0.94280  1.0000
  H   H14       1.0  0.16400  0.62690  0.05720  1.0000
  H   H15       1.0  0.69770  0.46680  0.02000  1.0000
  H   H16       1.0  0.30230  0.53320  0.98000  1.0000
  H   H17       1.0  0.64820  0.33570  0.98490  1.0000
  H   H18       1.0  0.35180  0.66430  0.01510  1.0000
  C   C13       1.0  0.11300  0.24080  0.52630  1.0000
  C   C14       1.0  0.88700  0.75920  0.47370  1.0000
  C   C15       1.0  0.96200  0.17520  0.59580  1.0000
  C   C16       1.0  0.03800  0.82480  0.40420  1.0000
  H   H19       1.0  0.98670  0.08580  0.59390  1.0000
  H   H20       1.0  0.01330  0.91420  0.40610  1.0000
  H   H21       1.0  0.87060  0.19640  0.55670  1.0000
  H   H22       1.0  0.12940  0.80360  0.44330  1.0000
  H   H23       1.0  0.93090  0.20100  0.68170  1.0000
  H   H24       1.0  0.06910  0.79900  0.31830  1.0000
