data_image0
_chemical_formula_structural       V2P2O12C2H2
_chemical_formula_sum              "V2 P2 O12 C2 H2"
_cell_length_a       6.3844
_cell_length_b       7.2278
_cell_length_c       9.2965
_cell_angle_alpha    67.26
_cell_angle_beta     72.927
_cell_angle_gamma    85.848

_space_group_name_H-M_alt    "P 1"
_space_group_IT_number       1

loop_
  _space_group_symop_operation_xyz
  'x, y, z'

loop_
  _atom_site_type_symbol
  _atom_site_label
  _atom_site_symmetry_multiplicity
  _atom_site_fract_x
  _atom_site_fract_y
  _atom_site_fract_z
  _atom_site_occupancy
  V   V1        1.0  0.82609  0.41924  0.34040  1.0000
  V   V2        1.0  0.17391  0.58076  0.65960  1.0000
  P   P1        1.0  0.30159  0.36192  0.40477  1.0000
  P   P2        1.0  0.69841  0.63808  0.59523  1.0000
  O   O1        1.0  0.78500  0.21780  0.49870  1.0000
  O   O2        1.0  0.21500  0.78220  0.50130  1.0000
  O   O3        1.0  0.91860  0.67540  0.08810  1.0000
  O   O4        1.0  0.08140  0.32460  0.91190  1.0000
  O   O5        1.0  0.14140  0.48010  0.31390  1.0000
  O   O6        1.0  0.85860  0.51990  0.68610  1.0000
  O   O7        1.0  0.25370  0.36170  0.57630  1.0000
  O   O8        1.0  0.74630  0.63830  0.42370  1.0000
  O   O9        1.0  0.06420  0.72060  0.82490  1.0000
  O   O10       1.0  0.93580  0.27940  0.17510  1.0000
  O   O11       1.0  0.53350  0.43640  0.29780  1.0000
  O   O12       1.0  0.46650  0.56360  0.70220  1.0000
  C   C1        1.0  0.99370  0.61410  0.97600  1.0000
  C   C2        1.0  0.00630  0.38590  0.02400  1.0000
  H   H1        1.0  0.29100  0.17000  0.42800  1.0000
  H   H2        1.0  0.70900  0.83000  0.57200  1.0000
