data_image0
_chemical_formula_structural       V4N4P4C4H8C4H8C8H8C4O32
_chemical_formula_sum              "V4 N4 P4 C20 H24 O32"
_cell_length_a       10.797
_cell_length_b       11.371
_cell_length_c       20.68
_cell_angle_alpha    90
_cell_angle_beta     102.04
_cell_angle_gamma    90

_space_group_name_H-M_alt    "P 1"
_space_group_IT_number       1

loop_
  _space_group_symop_operation_xyz
  'x, y, z'

loop_
  _atom_site_type_symbol
  _atom_site_label
  _atom_site_symmetry_multiplicity
  _atom_site_fract_x
  _atom_site_fract_y
  _atom_site_fract_z
  _atom_site_occupancy
  V   V1        1.0  0.79715  0.62294  0.99174  1.0000
  V   V2        1.0  0.20285  0.62294  0.50826  1.0000
  V   V3        1.0  0.20285  0.37706  0.00826  1.0000
  V   V4        1.0  0.79715  0.37706  0.49174  1.0000
  N   N1        1.0  0.97968  0.74507  0.02559  1.0000
  N   N2        1.0  0.02032  0.74507  0.47441  1.0000
  N   N3        1.0  0.02032  0.25493  0.97441  1.0000
  N   N4        1.0  0.97968  0.25493  0.52559  1.0000
  P   P1        1.0  0.04485  0.54039  0.09110  1.0000
  P   P2        1.0  0.95515  0.54039  0.40890  1.0000
  P   P3        1.0  0.95515  0.45961  0.90890  1.0000
  P   P4        1.0  0.04485  0.45961  0.59110  1.0000
  C   C1        1.0  0.09320  0.67160  0.05149  1.0000
  C   C2        1.0  0.90680  0.67160  0.44851  1.0000
  C   C3        1.0  0.90680  0.32840  0.94851  1.0000
  C   C4        1.0  0.09320  0.32840  0.55149  1.0000
  H   H1        1.0  0.15520  0.71730  0.08390  1.0000
  H   H2        1.0  0.84480  0.71730  0.41610  1.0000
  H   H3        1.0  0.84480  0.28270  0.91610  1.0000
  H   H4        1.0  0.15520  0.28270  0.58390  1.0000
  H   H5        1.0  0.13410  0.64840  0.01480  1.0000
  H   H6        1.0  0.86590  0.64840  0.48520  1.0000
  H   H7        1.0  0.86590  0.35160  0.98520  1.0000
  H   H8        1.0  0.13410  0.35160  0.51480  1.0000
  C   C5        1.0  0.98600  0.80650  0.96389  1.0000
  C   C6        1.0  0.01400  0.80650  0.53611  1.0000
  C   C7        1.0  0.01400  0.19350  0.03611  1.0000
  C   C8        1.0  0.98600  0.19350  0.46389  1.0000
  H   H9        1.0  0.02700  0.75540  0.93570  1.0000
  H   H10       1.0  0.97300  0.75540  0.56430  1.0000
  H   H11       1.0  0.97300  0.24460  0.06430  1.0000
  H   H12       1.0  0.02700  0.24460  0.43570  1.0000
  H   H13       1.0  0.03710  0.87900  0.97390  1.0000
  H   H14       1.0  0.96290  0.87900  0.52610  1.0000
  H   H15       1.0  0.96290  0.12100  0.02610  1.0000
  H   H16       1.0  0.03710  0.12100  0.47390  1.0000
  C   C9        1.0  0.85190  0.83750  0.92754  1.0000
  C   C10       1.0  0.14810  0.83750  0.57246  1.0000
  C   C11       1.0  0.14810  0.16250  0.07246  1.0000
  C   C12       1.0  0.85190  0.16250  0.42754  1.0000
  C   C13       1.0  0.94950  0.82650  0.07550  1.0000
  C   C14       1.0  0.05050  0.82650  0.42450  1.0000
  C   C15       1.0  0.05050  0.17350  0.92450  1.0000
  C   C16       1.0  0.94950  0.17350  0.57550  1.0000
  H   H17       1.0  0.93660  0.90620  0.05590  1.0000
  H   H18       1.0  0.06340  0.90620  0.44410  1.0000
  H   H19       1.0  0.06340  0.09380  0.94410  1.0000
  H   H20       1.0  0.93660  0.09380  0.55590  1.0000
  H   H21       1.0  0.02290  0.83030  0.11320  1.0000
  H   H22       1.0  0.97710  0.83030  0.38680  1.0000
  H   H23       1.0  0.97710  0.16970  0.88680  1.0000
  H   H24       1.0  0.02290  0.16970  0.61320  1.0000
  C   C17       1.0  0.83310  0.79260  0.10123  1.0000
  C   C18       1.0  0.16690  0.79260  0.39877  1.0000
  C   C19       1.0  0.16690  0.20740  0.89877  1.0000
  C   C20       1.0  0.83310  0.20740  0.60123  1.0000
  O   O1        1.0  0.66342  0.55637  0.97590  1.0000
  O   O2        1.0  0.33658  0.55637  0.52410  1.0000
  O   O3        1.0  0.33658  0.44363  0.02410  1.0000
  O   O4        1.0  0.66342  0.44363  0.47590  1.0000
  O   O5        1.0  0.90976  0.51750  0.05304  1.0000
  O   O6        1.0  0.09024  0.51750  0.44696  1.0000
  O   O7        1.0  0.09024  0.48250  0.94696  1.0000
  O   O8        1.0  0.90976  0.48250  0.55304  1.0000
  O   O9        1.0  0.13099  0.43698  0.08354  1.0000
  O   O10       1.0  0.86901  0.43698  0.41646  1.0000
  O   O11       1.0  0.86901  0.56302  0.91646  1.0000
  O   O12       1.0  0.13099  0.56302  0.58354  1.0000
  O   O13       1.0  0.05192  0.56643  0.16382  1.0000
  O   O14       1.0  0.94808  0.56643  0.33618  1.0000
  O   O15       1.0  0.94808  0.43357  0.83618  1.0000
  O   O16       1.0  0.05192  0.43357  0.66382  1.0000
  O   O17       1.0  0.76196  0.77498  0.94012  1.0000
  O   O18       1.0  0.23804  0.77498  0.55988  1.0000
  O   O19       1.0  0.23804  0.22502  0.05988  1.0000
  O   O20       1.0  0.76196  0.22502  0.44012  1.0000
  O   O21       1.0  0.83850  0.91910  0.88767  1.0000
  O   O22       1.0  0.16150  0.91910  0.61233  1.0000
  O   O23       1.0  0.16150  0.08090  0.11233  1.0000
  O   O24       1.0  0.83850  0.08090  0.38767  1.0000
  O   O25       1.0  0.76490  0.70938  0.07285  1.0000
  O   O26       1.0  0.23510  0.70938  0.42715  1.0000
  O   O27       1.0  0.23510  0.29062  0.92715  1.0000
  O   O28       1.0  0.76490  0.29062  0.57285  1.0000
  O   O29       1.0  0.81061  0.85110  0.14873  1.0000
  O   O30       1.0  0.18939  0.85110  0.35127  1.0000
  O   O31       1.0  0.18939  0.14890  0.85127  1.0000
  O   O32       1.0  0.81061  0.14890  0.64873  1.0000
