data_image0
_chemical_formula_structural       Na2O6S2C2H4C2H4C2H4O2C4H2C2H2C4H2C2H2C8O2C2H4C2H4C2H4S2O6C2H4C2H4N2C4H6N2O2C4O2N2C2N2C2H6C2H4C2H4N2C2H2N2O2C4O2N2C2H2N2C2H4C2H4N2C2H2N2O2C4O2N2C2H2N2C2H4C2H4N2C4H6N2O2C4O2N2C4H6N2C2H4C2H4O6S2C2H4C2H4C2H4O2C4H2C2H2C4H2C2H2C8O2C2H4C2H4C2H4S2O6Na2
_chemical_formula_sum              "Na4 O48 S8 C124 H136 N32"
_cell_length_a       15.095
_cell_length_b       18.214
_cell_length_c       19.64
_cell_angle_alpha    112.581
_cell_angle_beta     109.186
_cell_angle_gamma    93.104

_space_group_name_H-M_alt    "P 1"
_space_group_IT_number       1

loop_
  _space_group_symop_operation_xyz
  'x, y, z'

loop_
  _atom_site_type_symbol
  _atom_site_label
  _atom_site_symmetry_multiplicity
  _atom_site_fract_x
  _atom_site_fract_y
  _atom_site_fract_z
  _atom_site_occupancy
  Na  Na1       1.0  0.59500  0.47950  0.46140  1.0000
  Na  Na2       1.0  0.40500  0.52050  0.53860  1.0000
  O   O1        1.0  0.88470  0.41680  0.21080  1.0000
  O   O2        1.0  0.11530  0.58320  0.78920  1.0000
  O   O3        1.0  0.77130  0.32180  0.21140  1.0000
  O   O4        1.0  0.22870  0.67820  0.78860  1.0000
  O   O5        1.0  0.86480  0.27680  0.12350  1.0000
  O   O6        1.0  0.13520  0.72320  0.87650  1.0000
  S   S1        1.0  0.81940  0.33940  0.16080  1.0000
  S   S2        1.0  0.18060  0.66060  0.83920  1.0000
  C   C1        1.0  0.73540  0.35490  0.08660  1.0000
  C   C2        1.0  0.26460  0.64510  0.91340  1.0000
  H   H1        1.0  0.69100  0.38410  0.10910  1.0000
  H   H2        1.0  0.30900  0.61590  0.89090  1.0000
  H   H3        1.0  0.76920  0.39180  0.07280  1.0000
  H   H4        1.0  0.23080  0.60820  0.92720  1.0000
  C   C3        1.0  0.67780  0.28470  0.01280  1.0000
  C   C4        1.0  0.32220  0.71530  0.98720  1.0000
  H   H5        1.0  0.64650  0.24520  0.02550  1.0000
  H   H6        1.0  0.35350  0.75480  0.97450  1.0000
  H   H7        1.0  0.72020  0.25790  0.98620  1.0000
  H   H8        1.0  0.27980  0.74210  0.01380  1.0000
  C   C5        1.0  0.60220  0.30720  0.95660  1.0000
  C   C6        1.0  0.39780  0.69280  0.04340  1.0000
  H   H9        1.0  0.56640  0.34300  0.98470  1.0000
  H   H10       1.0  0.43360  0.65700  0.01530  1.0000
  H   H11       1.0  0.63120  0.33530  0.93250  1.0000
  H   H12       1.0  0.36880  0.66470  0.06750  1.0000
  O   O7        1.0  0.53900  0.22970  0.89580  1.0000
  O   O8        1.0  0.46100  0.77030  0.10420  1.0000
  C   C7        1.0  0.56220  0.18380  0.83660  1.0000
  C   C8        1.0  0.43780  0.81620  0.16340  1.0000
  C   C9        1.0  0.63640  0.19940  0.80890  1.0000
  C   C10       1.0  0.36360  0.80060  0.19110  1.0000
  H   H13       1.0  0.67750  0.25160  0.83820  1.0000
  H   H14       1.0  0.32250  0.74840  0.16180  1.0000
  C   C11       1.0  0.65200  0.15040  0.74970  1.0000
  C   C12       1.0  0.34800  0.84960  0.25030  1.0000
  H   H15       1.0  0.70440  0.16610  0.73810  1.0000
  H   H16       1.0  0.29560  0.83390  0.26190  1.0000
  C   C13       1.0  0.59280  0.07390  0.70180  1.0000
  C   C14       1.0  0.40720  0.92610  0.29820  1.0000
  C   C15       1.0  0.60990  0.02260  0.63480  1.0000
  C   C16       1.0  0.39010  0.97740  0.36520  1.0000
  H   H17       1.0  0.66640  0.03880  0.62850  1.0000
  H   H18       1.0  0.33360  0.96120  0.37150  1.0000
  C   C17       1.0  0.54950  0.95050  0.57820  1.0000
  C   C18       1.0  0.45050  0.04950  0.42180  1.0000
  H   H19       1.0  0.56180  0.91950  0.53210  1.0000
  H   H20       1.0  0.43820  0.08050  0.46790  1.0000
  C   C19       1.0  0.50530  0.10020  0.79020  1.0000
  C   C20       1.0  0.49470  0.89980  0.20980  1.0000
  C   C21       1.0  0.51570  0.04690  0.71970  1.0000
  C   C22       1.0  0.48430  0.95310  0.28030  1.0000
  C   C23       1.0  0.45490  0.97160  0.66170  1.0000
  C   C24       1.0  0.54510  0.02840  0.33830  1.0000
  C   C25       1.0  0.46910  0.92340  0.58960  1.0000
  C   C26       1.0  0.53090  0.07660  0.41040  1.0000
  O   O9        1.0  0.40290  0.85950  0.53440  1.0000
  O   O10       1.0  0.59710  0.14050  0.46560  1.0000
  C   C27       1.0  0.41480  0.80640  0.46180  1.0000
  C   C28       1.0  0.58520  0.19360  0.53820  1.0000
  H   H21       1.0  0.47350  0.78420  0.47460  1.0000
  H   H22       1.0  0.52650  0.21580  0.52540  1.0000
  H   H23       1.0  0.41900  0.83610  0.42970  1.0000
  H   H24       1.0  0.58100  0.16390  0.57030  1.0000
  C   C29       1.0  0.32670  0.73970  0.41800  1.0000
  C   C30       1.0  0.67330  0.26030  0.58200  1.0000
  H   H25       1.0  0.34250  0.69170  0.42790  1.0000
  H   H26       1.0  0.65750  0.30830  0.57210  1.0000
  H   H27       1.0  0.27690  0.75800  0.43940  1.0000
  H   H28       1.0  0.72310  0.24200  0.56060  1.0000
  C   C31       1.0  0.28840  0.71600  0.33260  1.0000
  C   C32       1.0  0.71160  0.28400  0.66740  1.0000
  H   H29       1.0  0.32990  0.68240  0.31000  1.0000
  H   H30       1.0  0.67010  0.31760  0.69000  1.0000
  H   H31       1.0  0.29520  0.76610  0.32450  1.0000
  H   H32       1.0  0.70480  0.23390  0.67550  1.0000
  S   S3        1.0  0.17200  0.66390  0.27720  1.0000
  S   S4        1.0  0.82800  0.33610  0.72280  1.0000
  O   O11       1.0  0.14300  0.67210  0.20330  1.0000
  O   O12       1.0  0.85700  0.32790  0.79670  1.0000
  O   O13       1.0  0.16590  0.57720  0.27000  1.0000
  O   O14       1.0  0.83410  0.42280  0.73000  1.0000
  O   O15       1.0  0.11700  0.70070  0.32400  1.0000
  O   O16       1.0  0.88300  0.29930  0.67600  1.0000
  C   C33       1.0  0.44130  0.07640  0.82600  1.0000
  C   C34       1.0  0.55870  0.92360  0.17400  1.0000
  H   H33       1.0  0.45170  0.12240  0.87750  1.0000
  H   H34       1.0  0.54830  0.87760  0.12250  1.0000
  H   H35       1.0  0.37380  0.06750  0.79030  1.0000
  H   H36       1.0  0.62620  0.93250  0.20970  1.0000
  C   C35       1.0  0.36100  0.93180  0.66130  1.0000
  C   C36       1.0  0.63900  0.06820  0.33870  1.0000
  H   H37       1.0  0.32450  0.97450  0.67730  1.0000
  H   H38       1.0  0.67550  0.02550  0.32270  1.0000
  H   H39       1.0  0.32150  0.89210  0.60610  1.0000
  H   H40       1.0  0.67850  0.10790  0.39390  1.0000
  N   N1        1.0  0.45440  0.00650  0.83930  1.0000
  N   N2        1.0  0.54560  0.99350  0.16070  1.0000
  C   C37       1.0  0.38480  0.93110  0.79720  1.0000
  C   C38       1.0  0.61520  0.06890  0.20280  1.0000
  C   C39       1.0  0.28650  0.94310  0.80110  1.0000
  C   C40       1.0  0.71350  0.05690  0.19890  1.0000
  H   H41       1.0  0.29330  0.96960  0.85700  1.0000
  H   H42       1.0  0.70670  0.03040  0.14300  1.0000
  H   H43       1.0  0.24260  0.89020  0.77480  1.0000
  H   H44       1.0  0.75740  0.10980  0.22520  1.0000
  H   H45       1.0  0.26090  0.97730  0.77420  1.0000
  H   H46       1.0  0.73910  0.02270  0.22580  1.0000
  N   N3        1.0  0.37490  0.89060  0.71320  1.0000
  N   N4        1.0  0.62510  0.10940  0.28680  1.0000
  O   O17       1.0  0.61330  0.05030  0.91970  1.0000
  O   O18       1.0  0.38670  0.94970  0.08030  1.0000
  C   C41       1.0  0.54080  0.99620  0.88070  1.0000
  C   C42       1.0  0.45920  0.00380  0.11930  1.0000
  C   C43       1.0  0.38640  0.81370  0.69400  1.0000
  C   C44       1.0  0.61360  0.18630  0.30600  1.0000
  O   O19       1.0  0.37200  0.76150  0.62630  1.0000
  O   O20       1.0  0.62800  0.23850  0.37370  1.0000
  N   N5        1.0  0.53320  0.91820  0.87340  1.0000
  N   N6        1.0  0.46680  0.08180  0.12660  1.0000
  C   C45       1.0  0.43220  0.87400  0.83190  1.0000
  C   C46       1.0  0.56780  0.12600  0.16810  1.0000
  N   N7        1.0  0.41480  0.79880  0.76040  1.0000
  N   N8        1.0  0.58520  0.20120  0.23960  1.0000
  C   C47       1.0  0.39610  0.85630  0.88960  1.0000
  C   C48       1.0  0.60390  0.14370  0.11040  1.0000
  H   H47       1.0  0.32780  0.83070  0.86250  1.0000
  H   H48       1.0  0.67220  0.16930  0.13750  1.0000
  H   H49       1.0  0.40520  0.90730  0.93580  1.0000
  H   H50       1.0  0.59480  0.09270  0.06420  1.0000
  H   H51       1.0  0.43220  0.81970  0.90760  1.0000
  H   H52       1.0  0.56780  0.18030  0.09240  1.0000
  C   C49       1.0  0.60880  0.89540  0.92400  1.0000
  C   C50       1.0  0.39120  0.10460  0.07600  1.0000
  H   H53       1.0  0.66030  0.94410  0.96120  1.0000
  H   H54       1.0  0.33970  0.05590  0.03880  1.0000
  H   H55       1.0  0.58300  0.87680  0.95630  1.0000
  H   H56       1.0  0.41700  0.12320  0.04370  1.0000
  C   C51       1.0  0.43450  0.72240  0.75800  1.0000
  C   C52       1.0  0.56550  0.27760  0.24200  1.0000
  H   H57       1.0  0.39360  0.67920  0.70500  1.0000
  H   H58       1.0  0.60640  0.32080  0.29500  1.0000
  H   H59       1.0  0.41630  0.71260  0.79830  1.0000
  H   H60       1.0  0.58370  0.28740  0.20170  1.0000
  N   N9        1.0  0.64950  0.83270  0.88190  1.0000
  N   N10       1.0  0.35050  0.16730  0.11810  1.0000
  C   C53       1.0  0.60890  0.74780  0.85070  1.0000
  C   C54       1.0  0.39110  0.25220  0.14930  1.0000
  H   H61       1.0  0.58830  0.73530  0.88920  1.0000
  H   H62       1.0  0.41170  0.26470  0.11080  1.0000
  N   N11       1.0  0.53310  0.71560  0.77240  1.0000
  N   N12       1.0  0.46690  0.28440  0.22760  1.0000
  O   O21       1.0  0.79970  0.91210  0.93020  1.0000
  O   O22       1.0  0.20030  0.08790  0.06980  1.0000
  C   C55       1.0  0.74700  0.84590  0.89670  1.0000
  C   C56       1.0  0.25300  0.15410  0.10330  1.0000
  C   C57       1.0  0.56230  0.66570  0.71470  1.0000
  C   C58       1.0  0.43770  0.33430  0.28530  1.0000
  O   O23       1.0  0.51220  0.62760  0.64330  1.0000
  O   O24       1.0  0.48780  0.37240  0.35670  1.0000
  N   N13       1.0  0.77140  0.77360  0.87130  1.0000
  N   N14       1.0  0.22860  0.22640  0.12870  1.0000
  C   C59       1.0  0.69140  0.70580  0.83580  1.0000
  C   C60       1.0  0.30860  0.29420  0.16420  1.0000
  H   H63       1.0  0.70450  0.66710  0.86110  1.0000
  H   H64       1.0  0.29550  0.33290  0.13890  1.0000
  N   N15       1.0  0.65720  0.66410  0.74910  1.0000
  N   N16       1.0  0.34280  0.33590  0.25090  1.0000
  C   C61       1.0  0.86930  0.76450  0.88470  1.0000
  C   C62       1.0  0.13070  0.23550  0.11530  1.0000
  H   H65       1.0  0.91250  0.81530  0.92890  1.0000
  H   H66       1.0  0.08750  0.18470  0.07110  1.0000
  H   H67       1.0  0.88010  0.72020  0.90190  1.0000
  H   H68       1.0  0.11990  0.27980  0.09810  1.0000
  C   C63       1.0  0.70180  0.60360  0.70920  1.0000
  C   C64       1.0  0.29820  0.39640  0.29080  1.0000
  H   H69       1.0  0.65320  0.56510  0.65690  1.0000
  H   H70       1.0  0.34680  0.43490  0.34310  1.0000
  H   H71       1.0  0.72510  0.57260  0.74100  1.0000
  H   H72       1.0  0.27490  0.42740  0.25900  1.0000
  N   N17       1.0  0.78130  0.63650  0.69650  1.0000
  N   N18       1.0  0.21870  0.36350  0.30350  1.0000
  C   C65       1.0  0.87810  0.66730  0.75700  1.0000
  C   C66       1.0  0.12190  0.33270  0.24300  1.0000
  H   H73       1.0  0.89880  0.62820  0.78050  1.0000
  H   H74       1.0  0.10120  0.37180  0.21950  1.0000
  N   N19       1.0  0.89470  0.74710  0.81700  1.0000
  N   N20       1.0  0.10530  0.25290  0.18300  1.0000
  O   O25       1.0  0.70800  0.59040  0.56030  1.0000
  O   O26       1.0  0.29200  0.40960  0.43970  1.0000
  C   C67       1.0  0.77810  0.62120  0.62200  1.0000
  C   C68       1.0  0.22190  0.37880  0.37800  1.0000
  C   C69       1.0  0.95150  0.80210  0.81130  1.0000
  C   C70       1.0  0.04850  0.19790  0.18870  1.0000
  O   O27       1.0  0.97810  0.87450  0.85570  1.0000
  O   O28       1.0  0.02190  0.12550  0.14430  1.0000
  N   N21       1.0  0.86890  0.64770  0.62870  1.0000
  N   N22       1.0  0.13110  0.35230  0.37130  1.0000
  C   C71       1.0  0.93840  0.67690  0.70930  1.0000
  C   C72       1.0  0.06160  0.32310  0.29070  1.0000
  H   H75       1.0  0.99080  0.64560  0.71300  1.0000
  H   H76       1.0  0.00920  0.35440  0.28700  1.0000
  N   N23       1.0  0.97500  0.76340  0.74640  1.0000
  N   N24       1.0  0.02500  0.23660  0.25360  1.0000
  C   C73       1.0  0.89600  0.62210  0.56030  1.0000
  C   C74       1.0  0.10400  0.37790  0.43970  1.0000
  H   H77       1.0  0.94650  0.59020  0.56780  1.0000
  H   H78       1.0  0.05350  0.40980  0.43220  1.0000
  H   H79       1.0  0.83970  0.58580  0.51240  1.0000
  H   H80       1.0  0.16030  0.41420  0.48760  1.0000
  C   C75       1.0  0.05780  0.79920  0.73870  1.0000
  C   C76       1.0  0.94220  0.20080  0.26130  1.0000
  H   H81       1.0  0.08600  0.85370  0.78350  1.0000
  H   H82       1.0  0.91400  0.14630  0.21650  1.0000
  H   H83       1.0  0.10660  0.76530  0.74340  1.0000
  H   H84       1.0  0.89340  0.23470  0.25660  1.0000
  N   N25       1.0  0.93050  0.68790  0.54660  1.0000
  N   N26       1.0  0.06950  0.31210  0.45340  1.0000
  C   C77       1.0  0.02700  0.73960  0.58890  1.0000
  C   C78       1.0  0.97300  0.26040  0.41110  1.0000
  C   C79       1.0  0.10370  0.69030  0.59990  1.0000
  C   C80       1.0  0.89630  0.30970  0.40010  1.0000
  H   H85       1.0  0.16710  0.72580  0.62340  1.0000
  H   H86       1.0  0.83290  0.27420  0.37660  1.0000
  H   H87       1.0  0.09550  0.64720  0.54810  1.0000
  H   H88       1.0  0.90450  0.35280  0.45190  1.0000
  H   H89       1.0  0.09820  0.66600  0.63540  1.0000
  H   H90       1.0  0.90180  0.33400  0.36460  1.0000
  N   N27       1.0  0.03700  0.80710  0.66450  1.0000
  N   N28       1.0  0.96300  0.19290  0.33550  1.0000
  O   O29       1.0  0.79160  0.67160  0.44280  1.0000
  O   O30       1.0  0.20840  0.32840  0.55720  1.0000
  C   C81       1.0  0.87480  0.70440  0.48510  1.0000
  C   C82       1.0  0.12520  0.29560  0.51490  1.0000
  C   C83       1.0  0.05320  0.88190  0.66530  1.0000
  C   C84       1.0  0.94680  0.11810  0.33470  1.0000
  O   O31       1.0  0.06520  0.94650  0.72010  1.0000
  O   O32       1.0  0.93480  0.05350  0.27990  1.0000
  N   N29       1.0  0.92920  0.76340  0.48210  1.0000
  N   N30       1.0  0.07080  0.23660  0.51790  1.0000
  C   C85       1.0  0.02940  0.78540  0.53730  1.0000
  C   C86       1.0  0.97060  0.21460  0.46270  1.0000
  C   C87       1.0  0.09680  0.76280  0.49160  1.0000
  C   C88       1.0  0.90320  0.23720  0.50840  1.0000
  H   H91       1.0  0.08630  0.78880  0.45490  1.0000
  H   H92       1.0  0.91370  0.21120  0.54510  1.0000
  H   H93       1.0  0.08350  0.70370  0.46120  1.0000
  H   H94       1.0  0.91650  0.29630  0.53880  1.0000
  H   H95       1.0  0.16360  0.78160  0.52950  1.0000
  H   H96       1.0  0.83640  0.21840  0.47050  1.0000
  N   N31       1.0  0.05570  0.86970  0.59180  1.0000
  N   N32       1.0  0.94430  0.13030  0.40820  1.0000
  C   C89       1.0  0.89230  0.79860  0.42450  1.0000
  C   C90       1.0  0.10770  0.20140  0.57550  1.0000
  H   H97       1.0  0.85180  0.75410  0.37220  1.0000
  H   H98       1.0  0.14820  0.24590  0.62780  1.0000
  H   H99       1.0  0.94740  0.82290  0.41790  1.0000
  H   H100      1.0  0.05260  0.17710  0.58210  1.0000
  C   C91       1.0  0.05180  0.93600  0.56680  1.0000
  C   C92       1.0  0.94820  0.06400  0.43320  1.0000
  H   H101      1.0  0.05230  0.91480  0.51240  1.0000
  H   H102      1.0  0.94770  0.08520  0.48760  1.0000
  H   H103      1.0  0.11060  0.97850  0.60270  1.0000
  H   H104      1.0  0.88940  0.02150  0.39730  1.0000
  O   O33       1.0  0.32720  0.53160  0.20560  1.0000
  O   O34       1.0  0.67280  0.46840  0.79440  1.0000
  O   O35       1.0  0.46050  0.46970  0.22860  1.0000
  O   O36       1.0  0.53950  0.53030  0.77140  1.0000
  O   O37       1.0  0.44500  0.59010  0.33940  1.0000
  O   O38       1.0  0.55500  0.40990  0.66060  1.0000
  S   S5        1.0  0.42710  0.54990  0.25570  1.0000
  S   S6        1.0  0.57290  0.45010  0.74430  1.0000
  C   C93       1.0  0.48290  0.61600  0.23210  1.0000
  C   C94       1.0  0.51710  0.38400  0.76790  1.0000
  H   H105      1.0  0.48230  0.58530  0.17790  1.0000
  H   H106      1.0  0.51770  0.41470  0.82210  1.0000
  H   H107      1.0  0.44390  0.65760  0.22960  1.0000
  H   H108      1.0  0.55610  0.34240  0.77040  1.0000
  C   C95       1.0  0.58130  0.65810  0.28500  1.0000
  C   C96       1.0  0.41870  0.34190  0.71500  1.0000
  H   H109      1.0  0.62430  0.61920  0.27680  1.0000
  H   H110      1.0  0.37570  0.38080  0.72320  1.0000
  H   H111      1.0  0.58640  0.67750  0.34100  1.0000
  H   H112      1.0  0.41360  0.32250  0.65900  1.0000
  C   C97       1.0  0.61430  0.72900  0.27210  1.0000
  C   C98       1.0  0.38570  0.27100  0.72790  1.0000
  H   H113      1.0  0.61490  0.71070  0.21790  1.0000
  H   H114      1.0  0.38510  0.28930  0.78210  1.0000
  H   H115      1.0  0.57160  0.76830  0.27900  1.0000
  H   H116      1.0  0.42840  0.23170  0.72100  1.0000
  O   O39       1.0  0.71100  0.76550  0.33240  1.0000
  O   O40       1.0  0.28900  0.23450  0.66760  1.0000
  C   C99       1.0  0.73290  0.83750  0.39220  1.0000
  C   C100      1.0  0.26710  0.16250  0.60780  1.0000
  C   C101      1.0  0.67650  0.89790  0.41550  1.0000
  C   C102      1.0  0.32350  0.10210  0.58450  1.0000
  H   H117      1.0  0.60990  0.88400  0.38360  1.0000
  H   H118      1.0  0.39010  0.11600  0.61640  1.0000
  C   C103      1.0  0.70740  0.96740  0.47410  1.0000
  C   C104      1.0  0.29260  0.03260  0.52590  1.0000
  H   H119      1.0  0.66430  0.00240  0.48430  1.0000
  H   H120      1.0  0.33570  0.99760  0.51570  1.0000
  C   C105      1.0  0.80390  0.99260  0.52370  1.0000
  C   C106      1.0  0.19610  0.00740  0.47630  1.0000
  C   C107      1.0  0.83560  0.07180  0.58540  1.0000
  C   C108      1.0  0.16440  0.92820  0.41460  1.0000
  H   H121      1.0  0.78990  0.10520  0.59090  1.0000
  H   H122      1.0  0.21010  0.89480  0.40910  1.0000
  C   C109      1.0  0.92850  0.10320  0.63780  1.0000
  C   C110      1.0  0.07150  0.89680  0.36220  1.0000
  H   H123      1.0  0.94580  0.15620  0.68000  1.0000
  H   H124      1.0  0.05420  0.84380  0.32000  1.0000
  C   C111      1.0  0.83420  0.86290  0.44710  1.0000
  C   C112      1.0  0.16580  0.13710  0.55290  1.0000
  C   C113      1.0  0.87110  0.94120  0.51180  1.0000
  C   C114      1.0  0.12890  0.05880  0.48820  1.0000
  C   C115      1.0  0.96700  0.97430  0.56670  1.0000
  C   C116      1.0  0.03300  0.02570  0.43330  1.0000
  C   C117      1.0  0.99800  0.05640  0.62850  1.0000
  C   C118      1.0  0.00200  0.94360  0.37150  1.0000
  O   O41       1.0  0.08980  0.08580  0.67310  1.0000
  O   O42       1.0  0.91020  0.91420  0.32690  1.0000
  C   C119      1.0  0.12160  0.15870  0.74840  1.0000
  C   C120      1.0  0.87840  0.84130  0.25160  1.0000
  H   H125      1.0  0.08580  0.15450  0.78140  1.0000
  H   H126      1.0  0.91420  0.84550  0.21860  1.0000
  H   H127      1.0  0.11170  0.20770  0.73870  1.0000
  H   H128      1.0  0.88830  0.79230  0.26130  1.0000
  C   C121      1.0  0.22640  0.16320  0.78920  1.0000
  C   C122      1.0  0.77360  0.83680  0.21080  1.0000
  H   H129      1.0  0.23380  0.11710  0.80410  1.0000
  H   H130      1.0  0.76620  0.88290  0.19590  1.0000
  H   H131      1.0  0.25840  0.15730  0.75130  1.0000
  H   H132      1.0  0.74160  0.84270  0.24870  1.0000
  C   C123      1.0  0.27390  0.23910  0.86050  1.0000
  C   C124      1.0  0.72610  0.76090  0.13950  1.0000
  H   H133      1.0  0.25260  0.28430  0.84770  1.0000
  H   H134      1.0  0.74740  0.71570  0.15230  1.0000
  H   H135      1.0  0.34370  0.24600  0.87270  1.0000
  H   H136      1.0  0.65630  0.75400  0.12730  1.0000
  S   S7        1.0  0.25620  0.24910  0.94560  1.0000
  S   S8        1.0  0.74380  0.75090  0.05440  1.0000
  O   O43       1.0  0.31790  0.32340  0.00990  1.0000
  O   O44       1.0  0.68210  0.67660  0.99010  1.0000
  O   O45       1.0  0.14940  0.24500  0.92840  1.0000
  O   O46       1.0  0.85060  0.75500  0.07160  1.0000
  O   O47       1.0  0.27690  0.17720  0.95600  1.0000
  O   O48       1.0  0.72310  0.82280  0.04400  1.0000
  Na  Na3       1.0  0.90720  0.01960  0.04010  1.0000
  Na  Na4       1.0  0.09280  0.98040  0.95990  1.0000
