data_image0
_chemical_formula_structural       Zn12C8H4C8H4C8H4C12H8C8H4C4H4C8H4C4H4C8H4C4H4C4H4C4H4C16H4C8H4C8H4C12H8C8H4C4H4C8H4C4H4C8H4C4H4C4H4C4H4C8O60H4
_chemical_formula_sum              "Zn12 C176 H108 O60"
_cell_length_a       13.137
_cell_length_b       15.3527
_cell_length_c       24.3497
_cell_angle_alpha    90
_cell_angle_beta     105.103
_cell_angle_gamma    90

_space_group_name_H-M_alt    "P 1"
_space_group_IT_number       1

loop_
  _space_group_symop_operation_xyz
  'x, y, z'

loop_
  _atom_site_type_symbol
  _atom_site_label
  _atom_site_symmetry_multiplicity
  _atom_site_fract_x
  _atom_site_fract_y
  _atom_site_fract_z
  _atom_site_occupancy
  Zn  Zn1       1.0  0.04532  0.21272  0.35398  1.0000
  Zn  Zn2       1.0  0.45468  0.71272  0.14602  1.0000
  Zn  Zn3       1.0  0.95468  0.78728  0.64602  1.0000
  Zn  Zn4       1.0  0.54532  0.28728  0.85398  1.0000
  Zn  Zn5       1.0  0.00522  0.34021  0.25470  1.0000
  Zn  Zn6       1.0  0.49478  0.84021  0.24530  1.0000
  Zn  Zn7       1.0  0.99478  0.65979  0.74530  1.0000
  Zn  Zn8       1.0  0.50522  0.15979  0.75470  1.0000
  Zn  Zn9       1.0  0.09453  0.13817  0.23398  1.0000
  Zn  Zn10      1.0  0.40547  0.63817  0.26602  1.0000
  Zn  Zn11      1.0  0.90547  0.86183  0.76602  1.0000
  Zn  Zn12      1.0  0.59453  0.36183  0.73398  1.0000
  C   C1        1.0  0.76130  0.33710  0.35305  1.0000
  C   C2        1.0  0.73870  0.83710  0.14695  1.0000
  C   C3        1.0  0.23870  0.66290  0.64695  1.0000
  C   C4        1.0  0.26130  0.16290  0.85305  1.0000
  C   C5        1.0  0.71150  0.40940  0.32500  1.0000
  C   C6        1.0  0.78850  0.90940  0.17500  1.0000
  C   C7        1.0  0.28850  0.59060  0.67500  1.0000
  C   C8        1.0  0.21150  0.09060  0.82500  1.0000
  H   H1        1.0  0.74290  0.43980  0.30080  1.0000
  H   H2        1.0  0.75710  0.93980  0.19920  1.0000
  H   H3        1.0  0.25710  0.56020  0.69920  1.0000
  H   H4        1.0  0.24290  0.06020  0.80080  1.0000
  C   C9        1.0  0.61570  0.43820  0.33200  1.0000
  C   C10       1.0  0.88430  0.93820  0.16800  1.0000
  C   C11       1.0  0.38430  0.56180  0.66800  1.0000
  C   C12       1.0  0.11570  0.06180  0.83200  1.0000
  C   C13       1.0  0.56860  0.39230  0.36734  1.0000
  C   C14       1.0  0.93140  0.89230  0.13266  1.0000
  C   C15       1.0  0.43140  0.60770  0.63266  1.0000
  C   C16       1.0  0.06860  0.10770  0.86734  1.0000
  H   H5        1.0  0.50370  0.41010  0.37200  1.0000
  H   H6        1.0  0.99630  0.91010  0.12800  1.0000
  H   H7        1.0  0.49630  0.58990  0.62800  1.0000
  H   H8        1.0  0.00370  0.08990  0.87200  1.0000
  C   C17       1.0  0.61840  0.31880  0.39620  1.0000
  C   C18       1.0  0.88160  0.81880  0.10380  1.0000
  C   C19       1.0  0.38160  0.68120  0.60380  1.0000
  C   C20       1.0  0.11840  0.18120  0.89620  1.0000
  C   C21       1.0  0.71580  0.29190  0.38965  1.0000
  C   C22       1.0  0.78420  0.79190  0.11035  1.0000
  C   C23       1.0  0.28420  0.70810  0.61035  1.0000
  C   C24       1.0  0.21580  0.20810  0.88965  1.0000
  H   H9        1.0  0.74980  0.24400  0.40970  1.0000
  H   H10       1.0  0.75020  0.74400  0.09030  1.0000
  H   H11       1.0  0.25020  0.75600  0.59030  1.0000
  H   H12       1.0  0.24980  0.25600  0.90970  1.0000
  C   C25       1.0  0.86310  0.30760  0.34190  1.0000
  C   C26       1.0  0.63690  0.80760  0.15810  1.0000
  C   C27       1.0  0.13690  0.69240  0.65810  1.0000
  C   C28       1.0  0.36310  0.19240  0.84190  1.0000
  C   C29       1.0  0.56420  0.51830  0.30060  1.0000
  C   C30       1.0  0.93580  0.01830  0.19940  1.0000
  C   C31       1.0  0.43580  0.48170  0.69940  1.0000
  C   C32       1.0  0.06420  0.98170  0.80060  1.0000
  C   C33       1.0  0.60600  0.20320  0.46100  1.0000
  C   C34       1.0  0.89400  0.70320  0.03900  1.0000
  C   C35       1.0  0.39400  0.79680  0.53900  1.0000
  C   C36       1.0  0.10600  0.29680  0.96100  1.0000
  H   H13       1.0  0.67020  0.21850  0.48940  1.0000
  H   H14       1.0  0.82980  0.71850  0.01060  1.0000
  H   H15       1.0  0.32980  0.78150  0.51060  1.0000
  H   H16       1.0  0.17020  0.28150  0.98940  1.0000
  H   H17       1.0  0.62290  0.15960  0.43600  1.0000
  H   H18       1.0  0.87710  0.65960  0.06400  1.0000
  H   H19       1.0  0.37710  0.84040  0.56400  1.0000
  H   H20       1.0  0.12290  0.34040  0.93600  1.0000
  C   C37       1.0  0.52630  0.16780  0.48950  1.0000
  C   C38       1.0  0.97370  0.66780  0.01050  1.0000
  C   C39       1.0  0.47370  0.83220  0.51050  1.0000
  C   C40       1.0  0.02630  0.33220  0.98950  1.0000
  C   C41       1.0  0.41980  0.17950  0.46690  1.0000
  C   C42       1.0  0.08020  0.67950  0.03310  1.0000
  C   C43       1.0  0.58020  0.82050  0.53310  1.0000
  C   C44       1.0  0.91980  0.32050  0.96690  1.0000
  H   H21       1.0  0.39650  0.21290  0.43420  1.0000
  H   H22       1.0  0.10350  0.71290  0.06580  1.0000
  H   H23       1.0  0.60350  0.78710  0.56580  1.0000
  H   H24       1.0  0.89650  0.28710  0.93420  1.0000
  C   C45       1.0  0.34670  0.14290  0.49180  1.0000
  C   C46       1.0  0.15330  0.64290  0.00820  1.0000
  C   C47       1.0  0.65330  0.85710  0.50820  1.0000
  C   C48       1.0  0.84670  0.35710  0.99180  1.0000
  H   H25       1.0  0.27520  0.15210  0.47560  1.0000
  H   H26       1.0  0.22480  0.65210  0.02440  1.0000
  H   H27       1.0  0.72480  0.84790  0.52440  1.0000
  H   H28       1.0  0.77520  0.34790  0.97560  1.0000
  C   C49       1.0  0.37870  0.09270  0.54048  1.0000
  C   C50       1.0  0.12130  0.59270  0.95952  1.0000
  C   C51       1.0  0.62130  0.90730  0.45952  1.0000
  C   C52       1.0  0.87870  0.40730  0.04048  1.0000
  C   C53       1.0  0.48590  0.08110  0.56350  1.0000
  C   C54       1.0  0.01410  0.58110  0.93650  1.0000
  C   C55       1.0  0.51410  0.91890  0.43650  1.0000
  C   C56       1.0  0.98590  0.41890  0.06350  1.0000
  H   H29       1.0  0.50960  0.04820  0.59650  1.0000
  H   H30       1.0  0.99040  0.54820  0.90350  1.0000
  H   H31       1.0  0.49040  0.95180  0.40350  1.0000
  H   H32       1.0  0.00960  0.45180  0.09650  1.0000
  C   C57       1.0  0.55820  0.11830  0.53800  1.0000
  C   C58       1.0  0.94180  0.61830  0.96200  1.0000
  C   C59       1.0  0.44180  0.88170  0.46200  1.0000
  C   C60       1.0  0.05820  0.38170  0.03800  1.0000
  H   H33       1.0  0.62990  0.10950  0.55400  1.0000
  H   H34       1.0  0.87010  0.60950  0.94600  1.0000
  H   H35       1.0  0.37010  0.89050  0.44600  1.0000
  H   H36       1.0  0.12990  0.39050  0.05400  1.0000
  C   C61       1.0  0.29870  0.04980  0.56460  1.0000
  C   C62       1.0  0.20130  0.54980  0.93540  1.0000
  C   C63       1.0  0.70130  0.95020  0.43540  1.0000
  C   C64       1.0  0.79870  0.45020  0.06460  1.0000
  C   C65       1.0  0.21610  0.00630  0.52770  1.0000
  C   C66       1.0  0.28390  0.50630  0.97230  1.0000
  C   C67       1.0  0.78390  0.99370  0.47230  1.0000
  C   C68       1.0  0.71610  0.49370  0.02770  1.0000
  H   H37       1.0  0.21240  0.00580  0.48910  1.0000
  H   H38       1.0  0.28760  0.50580  0.01090  1.0000
  H   H39       1.0  0.78760  0.99420  0.51090  1.0000
  H   H40       1.0  0.71240  0.49420  0.98910  1.0000
  C   C69       1.0  0.13940  0.96400  0.54660  1.0000
  C   C70       1.0  0.36060  0.46400  0.95340  1.0000
  C   C71       1.0  0.86060  0.03600  0.45340  1.0000
  C   C72       1.0  0.63940  0.53600  0.04660  1.0000
  H   H41       1.0  0.08420  0.93660  0.52060  1.0000
  H   H42       1.0  0.41580  0.43660  0.97940  1.0000
  H   H43       1.0  0.91580  0.06340  0.47940  1.0000
  H   H44       1.0  0.58420  0.56340  0.02060  1.0000
  C   C73       1.0  0.14410  0.96200  0.60330  1.0000
  C   C74       1.0  0.35590  0.46200  0.89670  1.0000
  C   C75       1.0  0.85590  0.03800  0.39670  1.0000
  C   C76       1.0  0.64410  0.53800  0.10330  1.0000
  H   H45       1.0  0.09230  0.93300  0.61590  1.0000
  H   H46       1.0  0.40770  0.43300  0.88410  1.0000
  H   H47       1.0  0.90770  0.06700  0.38410  1.0000
  H   H48       1.0  0.59230  0.56700  0.11590  1.0000
  C   C77       1.0  0.22480  0.00250  0.64110  1.0000
  C   C78       1.0  0.27520  0.50250  0.85890  1.0000
  C   C79       1.0  0.77520  0.99750  0.35890  1.0000
  C   C80       1.0  0.72480  0.49750  0.14110  1.0000
  H   H49       1.0  0.22840  0.00020  0.67970  1.0000
  H   H50       1.0  0.27160  0.50020  0.82030  1.0000
  H   H51       1.0  0.77160  0.99980  0.32030  1.0000
  H   H52       1.0  0.72840  0.49980  0.17970  1.0000
  C   C81       1.0  0.30200  0.04750  0.62273  1.0000
  C   C82       1.0  0.19800  0.54750  0.87727  1.0000
  C   C83       1.0  0.69800  0.95250  0.37727  1.0000
  C   C84       1.0  0.80200  0.45250  0.12273  1.0000
  C   C85       1.0  0.37960  0.09630  0.66690  1.0000
  C   C86       1.0  0.12040  0.59630  0.83310  1.0000
  C   C87       1.0  0.62040  0.90370  0.33310  1.0000
  C   C88       1.0  0.87960  0.40370  0.16690  1.0000
  C   C89       1.0  0.16170  0.96050  0.35266  1.0000
  C   C90       1.0  0.33830  0.46050  0.14734  1.0000
  C   C91       1.0  0.83830  0.03950  0.64734  1.0000
  C   C92       1.0  0.66170  0.53950  0.85266  1.0000
  C   C93       1.0  0.10590  0.91230  0.38371  1.0000
  C   C94       1.0  0.39410  0.41230  0.11629  1.0000
  C   C95       1.0  0.89410  0.08770  0.61629  1.0000
  C   C96       1.0  0.60590  0.58770  0.88371  1.0000
  H   H53       1.0  0.05900  0.94030  0.40050  1.0000
  H   H54       1.0  0.44100  0.44030  0.09950  1.0000
  H   H55       1.0  0.94100  0.05970  0.59950  1.0000
  H   H56       1.0  0.55900  0.55970  0.90050  1.0000
  C   C97       1.0  0.11970  0.82430  0.38960  1.0000
  C   C98       1.0  0.38030  0.32430  0.11040  1.0000
  C   C99       1.0  0.88030  0.17570  0.61040  1.0000
  C   C100      1.0  0.61970  0.67570  0.88960  1.0000
  C   C101      1.0  0.19140  0.78120  0.36527  1.0000
  C   C102      1.0  0.30860  0.28120  0.13473  1.0000
  C   C103      1.0  0.80860  0.21880  0.63473  1.0000
  C   C104      1.0  0.69140  0.71880  0.86527  1.0000
  H   H57       1.0  0.20230  0.72150  0.37030  1.0000
  H   H58       1.0  0.29770  0.22150  0.12970  1.0000
  H   H59       1.0  0.79770  0.27850  0.62970  1.0000
  H   H60       1.0  0.70230  0.77850  0.87030  1.0000
  C   C105      1.0  0.24570  0.82850  0.33363  1.0000
  C   C106      1.0  0.25430  0.32850  0.16637  1.0000
  C   C107      1.0  0.75430  0.17150  0.66637  1.0000
  C   C108      1.0  0.74570  0.67150  0.83363  1.0000
  C   C109      1.0  0.23100  0.91800  0.32757  1.0000
  C   C110      1.0  0.26900  0.41800  0.17243  1.0000
  C   C111      1.0  0.76900  0.08200  0.67243  1.0000
  C   C112      1.0  0.73100  0.58200  0.82757  1.0000
  H   H61       1.0  0.26790  0.94970  0.30650  1.0000
  H   H62       1.0  0.23210  0.44970  0.19350  1.0000
  H   H63       1.0  0.73210  0.05030  0.69350  1.0000
  H   H64       1.0  0.76790  0.55030  0.80650  1.0000
  C   C113      1.0  0.14440  0.05580  0.34513  1.0000
  C   C114      1.0  0.35560  0.55580  0.15487  1.0000
  C   C115      1.0  0.85560  0.94420  0.65487  1.0000
  C   C116      1.0  0.64440  0.44420  0.84513  1.0000
  C   C117      1.0  0.31880  0.78430  0.30473  1.0000
  C   C118      1.0  0.18120  0.28430  0.19527  1.0000
  C   C119      1.0  0.68120  0.21570  0.69527  1.0000
  C   C120      1.0  0.81880  0.71570  0.80473  1.0000
  C   C121      1.0  0.97650  0.80690  0.43190  1.0000
  C   C122      1.0  0.52350  0.30690  0.06810  1.0000
  C   C123      1.0  0.02350  0.19310  0.56810  1.0000
  C   C124      1.0  0.47650  0.69310  0.93190  1.0000
  H   H65       1.0  0.92820  0.83230  0.39870  1.0000
  H   H66       1.0  0.57180  0.33230  0.10130  1.0000
  H   H67       1.0  0.07180  0.16770  0.60130  1.0000
  H   H68       1.0  0.42820  0.66770  0.89870  1.0000
  H   H69       1.0  0.99970  0.85270  0.45990  1.0000
  H   H70       1.0  0.50030  0.35270  0.04010  1.0000
  H   H71       1.0  0.00030  0.14730  0.54010  1.0000
  H   H72       1.0  0.49970  0.64730  0.95990  1.0000
  C   C125      1.0  0.92160  0.73760  0.45600  1.0000
  C   C126      1.0  0.57840  0.23760  0.04400  1.0000
  C   C127      1.0  0.07840  0.26240  0.54400  1.0000
  C   C128      1.0  0.42160  0.76240  0.95600  1.0000
  C   C129      1.0  0.81450  0.72990  0.43770  1.0000
  C   C130      1.0  0.68550  0.22990  0.06230  1.0000
  C   C131      1.0  0.18550  0.27010  0.56230  1.0000
  C   C132      1.0  0.31450  0.77010  0.93770  1.0000
  H   H73       1.0  0.77690  0.76410  0.40770  1.0000
  H   H74       1.0  0.72310  0.26410  0.09230  1.0000
  H   H75       1.0  0.22310  0.23590  0.59230  1.0000
  H   H76       1.0  0.27690  0.73590  0.90770  1.0000
  C   C133      1.0  0.76230  0.67170  0.46340  1.0000
  C   C134      1.0  0.73770  0.17170  0.03660  1.0000
  C   C135      1.0  0.23770  0.32830  0.53660  1.0000
  C   C136      1.0  0.26230  0.82830  0.96340  1.0000
  H   H77       1.0  0.68910  0.66840  0.45120  1.0000
  H   H78       1.0  0.81090  0.16840  0.04880  1.0000
  H   H79       1.0  0.31090  0.33160  0.54880  1.0000
  H   H80       1.0  0.18910  0.83160  0.95120  1.0000
  C   C137      1.0  0.81540  0.61790  0.50710  1.0000
  C   C138      1.0  0.68460  0.11790  0.99290  1.0000
  C   C139      1.0  0.18460  0.38210  0.49290  1.0000
  C   C140      1.0  0.31540  0.88210  0.00710  1.0000
  C   C141      1.0  0.92390  0.62320  0.52300  1.0000
  C   C142      1.0  0.57610  0.12320  0.97700  1.0000
  C   C143      1.0  0.07610  0.37680  0.47700  1.0000
  C   C144      1.0  0.42390  0.87680  0.02300  1.0000
  H   H81       1.0  0.96220  0.58610  0.55100  1.0000
  H   H82       1.0  0.53780  0.08610  0.94900  1.0000
  H   H83       1.0  0.03780  0.41390  0.44900  1.0000
  H   H84       1.0  0.46220  0.91390  0.05100  1.0000
  C   C145      1.0  0.97690  0.68300  0.49770  1.0000
  C   C146      1.0  0.52310  0.18300  0.00230  1.0000
  C   C147      1.0  0.02310  0.31700  0.50230  1.0000
  C   C148      1.0  0.47690  0.81700  0.99770  1.0000
  H   H85       1.0  0.05020  0.68600  0.50910  1.0000
  H   H86       1.0  0.44980  0.18600  0.99090  1.0000
  H   H87       1.0  0.94980  0.31400  0.49090  1.0000
  H   H88       1.0  0.55020  0.81400  0.00910  1.0000
  C   C149      1.0  0.75620  0.55970  0.53660  1.0000
  C   C150      1.0  0.74380  0.05970  0.96340  1.0000
  C   C151      1.0  0.24380  0.44030  0.46340  1.0000
  C   C152      1.0  0.25620  0.94030  0.03660  1.0000
  C   C153      1.0  0.68690  0.49970  0.50510  1.0000
  C   C154      1.0  0.81310  0.99970  0.99490  1.0000
  C   C155      1.0  0.31310  0.50030  0.49490  1.0000
  C   C156      1.0  0.18690  0.00030  0.00510  1.0000
  H   H89       1.0  0.67870  0.49670  0.46600  1.0000
  H   H90       1.0  0.82130  0.99670  0.03400  1.0000
  H   H91       1.0  0.32130  0.50330  0.53400  1.0000
  H   H92       1.0  0.17870  0.00330  0.96600  1.0000
  C   C157      1.0  0.62980  0.44430  0.52970  1.0000
  C   C158      1.0  0.87020  0.94430  0.97030  1.0000
  C   C159      1.0  0.37020  0.55570  0.47030  1.0000
  C   C160      1.0  0.12980  0.05570  0.02970  1.0000
  H   H93       1.0  0.58340  0.40460  0.50750  1.0000
  H   H94       1.0  0.91660  0.90460  0.99250  1.0000
  H   H95       1.0  0.41660  0.59540  0.49250  1.0000
  H   H96       1.0  0.08340  0.09540  0.00750  1.0000
  C   C161      1.0  0.64140  0.44770  0.58730  1.0000
  C   C162      1.0  0.85860  0.94770  0.91270  1.0000
  C   C163      1.0  0.35860  0.55230  0.41270  1.0000
  C   C164      1.0  0.14140  0.05230  0.08730  1.0000
  H   H97       1.0  0.60240  0.41080  0.60430  1.0000
  H   H98       1.0  0.89760  0.91080  0.89570  1.0000
  H   H99       1.0  0.39760  0.58920  0.39570  1.0000
  H   H100      1.0  0.10240  0.08920  0.10430  1.0000
  C   C165      1.0  0.71090  0.50590  0.61950  1.0000
  C   C166      1.0  0.78910  0.00590  0.88050  1.0000
  C   C167      1.0  0.28910  0.49410  0.38050  1.0000
  C   C168      1.0  0.21090  0.99410  0.11950  1.0000
  H   H101      1.0  0.71980  0.50690  0.65870  1.0000
  H   H102      1.0  0.78020  0.00690  0.84130  1.0000
  H   H103      1.0  0.28020  0.49310  0.34130  1.0000
  H   H104      1.0  0.21980  0.99310  0.15870  1.0000
  C   C169      1.0  0.76810  0.56320  0.59547  1.0000
  C   C170      1.0  0.73190  0.06320  0.90453  1.0000
  C   C171      1.0  0.23190  0.43680  0.40453  1.0000
  C   C172      1.0  0.26810  0.93680  0.09547  1.0000
  C   C173      1.0  0.84030  0.62620  0.63360  1.0000
  C   C174      1.0  0.65970  0.12620  0.86640  1.0000
  C   C175      1.0  0.15970  0.37380  0.36640  1.0000
  C   C176      1.0  0.34030  0.87380  0.13360  1.0000
  O   O1        1.0  0.91110  0.24470  0.36996  1.0000
  O   O2        1.0  0.58890  0.74470  0.13004  1.0000
  O   O3        1.0  0.08890  0.75530  0.63004  1.0000
  O   O4        1.0  0.41110  0.25530  0.86996  1.0000
  O   O5        1.0  0.89150  0.34750  0.30377  1.0000
  O   O6        1.0  0.60850  0.84750  0.19623  1.0000
  O   O7        1.0  0.10850  0.65250  0.69623  1.0000
  O   O8        1.0  0.39150  0.15250  0.80377  1.0000
  O   O9        1.0  0.61310  0.56070  0.27241  1.0000
  O   O10       1.0  0.88690  0.06070  0.22759  1.0000
  O   O11       1.0  0.38690  0.43930  0.72759  1.0000
  O   O12       1.0  0.11310  0.93930  0.77241  1.0000
  O   O13       1.0  0.47380  0.53780  0.30619  1.0000
  O   O14       1.0  0.02620  0.03780  0.19381  1.0000
  O   O15       1.0  0.52620  0.46220  0.69381  1.0000
  O   O16       1.0  0.97380  0.96220  0.80619  1.0000
  O   O17       1.0  0.56290  0.27840  0.42914  1.0000
  O   O18       1.0  0.93710  0.77840  0.07086  1.0000
  O   O19       1.0  0.43710  0.72160  0.57086  1.0000
  O   O20       1.0  0.06290  0.22160  0.92914  1.0000
  O   O21       1.0  0.43390  0.05400  0.71017  1.0000
  O   O22       1.0  0.06610  0.55400  0.78983  1.0000
  O   O23       1.0  0.56610  0.94600  0.28983  1.0000
  O   O24       1.0  0.93390  0.44600  0.21017  1.0000
  O   O25       1.0  0.38820  0.17590  0.66530  1.0000
  O   O26       1.0  0.11180  0.67590  0.83470  1.0000
  O   O27       1.0  0.61180  0.82410  0.33470  1.0000
  O   O28       1.0  0.88820  0.32410  0.16530  1.0000
  O   O29       1.0  0.09250  0.09350  0.37517  1.0000
  O   O30       1.0  0.40750  0.59350  0.12483  1.0000
  O   O31       1.0  0.90750  0.90650  0.62483  1.0000
  O   O32       1.0  0.59250  0.40650  0.87517  1.0000
  O   O33       1.0  0.18230  0.09380  0.30892  1.0000
  O   O34       1.0  0.31770  0.59380  0.19108  1.0000
  O   O35       1.0  0.81770  0.90620  0.69108  1.0000
  O   O36       1.0  0.68230  0.40620  0.80892  1.0000
  O   O37       1.0  0.37620  0.83210  0.28474  1.0000
  O   O38       1.0  0.12380  0.33210  0.21526  1.0000
  O   O39       1.0  0.62380  0.16790  0.71526  1.0000
  O   O40       1.0  0.87620  0.66790  0.78474  1.0000
  O   O41       1.0  0.31660  0.70240  0.30302  1.0000
  O   O42       1.0  0.18340  0.20240  0.19698  1.0000
  O   O43       1.0  0.68340  0.29760  0.69698  1.0000
  O   O44       1.0  0.81660  0.79760  0.80302  1.0000
  O   O45       1.0  0.06430  0.77080  0.41665  1.0000
  O   O46       1.0  0.43570  0.27080  0.08335  1.0000
  O   O47       1.0  0.93570  0.22920  0.58335  1.0000
  O   O48       1.0  0.56430  0.72920  0.91665  1.0000
  O   O49       1.0  0.89100  0.59880  0.68092  1.0000
  O   O50       1.0  0.60900  0.09880  0.81908  1.0000
  O   O51       1.0  0.10900  0.40120  0.31908  1.0000
  O   O52       1.0  0.39100  0.90120  0.18092  1.0000
  O   O53       1.0  0.84360  0.70410  0.61661  1.0000
  O   O54       1.0  0.65640  0.20410  0.88339  1.0000
  O   O55       1.0  0.15640  0.29590  0.38339  1.0000
  O   O56       1.0  0.34360  0.79590  0.11661  1.0000
  O   O57       1.0  0.00460  0.21000  0.26900  1.0000
  O   O58       1.0  0.49540  0.71000  0.23100  1.0000
  O   O59       1.0  0.99540  0.79000  0.73100  1.0000
  O   O60       1.0  0.50460  0.29000  0.76900  1.0000
  H   H105      1.0  0.95000  0.18100  0.25580  1.0000
  H   H106      1.0  0.55000  0.68100  0.24420  1.0000
  H   H107      1.0  0.05000  0.81900  0.74420  1.0000
  H   H108      1.0  0.45000  0.31900  0.75580  1.0000
