data_image0
_chemical_formula_structural       Mg4O24C4H4C4H4C4H4
_chemical_formula_sum              "Mg4 O24 C12 H12"
_cell_length_a       8.8569
_cell_length_b       8.1047
_cell_length_c       11.769
_cell_angle_alpha    90
_cell_angle_beta     90
_cell_angle_gamma    90

_space_group_name_H-M_alt    "P 1"
_space_group_IT_number       1

loop_
  _space_group_symop_operation_xyz
  'x, y, z'

loop_
  _atom_site_type_symbol
  _atom_site_label
  _atom_site_symmetry_multiplicity
  _atom_site_fract_x
  _atom_site_fract_y
  _atom_site_fract_z
  _atom_site_occupancy
  Mg  Mg1       1.0  0.53077  0.50275  0.49995  1.0000
  Mg  Mg2       1.0  0.46923  0.49725  0.99995  1.0000
  Mg  Mg3       1.0  0.03077  0.99725  0.49995  1.0000
  Mg  Mg4       1.0  0.96923  0.00275  0.99995  1.0000
  O   O1        1.0  0.32578  0.39867  0.55961  1.0000
  O   O2        1.0  0.67422  0.60133  0.05961  1.0000
  O   O3        1.0  0.82578  0.10133  0.55961  1.0000
  O   O4        1.0  0.17422  0.89867  0.05961  1.0000
  O   O5        1.0  0.14918  0.20322  0.55857  1.0000
  O   O6        1.0  0.85082  0.79678  0.05857  1.0000
  O   O7        1.0  0.64918  0.29678  0.55857  1.0000
  O   O8        1.0  0.35082  0.70322  0.05857  1.0000
  O   O9        1.0  0.41814  0.71192  0.44013  1.0000
  O   O10       1.0  0.58186  0.28808  0.94013  1.0000
  O   O11       1.0  0.91814  0.78808  0.44013  1.0000
  O   O12       1.0  0.08186  0.21192  0.94013  1.0000
  O   O13       1.0  0.23413  0.89966  0.43755  1.0000
  O   O14       1.0  0.76587  0.10034  0.93755  1.0000
  O   O15       1.0  0.73413  0.60034  0.43755  1.0000
  O   O16       1.0  0.26587  0.39966  0.93755  1.0000
  O   O17       1.0  0.54760  0.62069  0.65885  1.0000
  O   O18       1.0  0.45240  0.37931  0.15885  1.0000
  O   O19       1.0  0.04760  0.87931  0.65885  1.0000
  O   O20       1.0  0.95240  0.12069  0.15885  1.0000
  O   O21       1.0  0.50417  0.61436  0.84485  1.0000
  O   O22       1.0  0.49583  0.38564  0.34485  1.0000
  O   O23       1.0  0.00417  0.88564  0.84485  1.0000
  O   O24       1.0  0.99583  0.11436  0.34485  1.0000
  C   C1        1.0  0.27027  0.26409  0.52556  1.0000
  C   C2        1.0  0.72973  0.73591  0.02556  1.0000
  C   C3        1.0  0.77027  0.23591  0.52556  1.0000
  C   C4        1.0  0.22973  0.76409  0.02556  1.0000
  H   H1        1.0  0.32570  0.20430  0.47000  1.0000
  H   H2        1.0  0.67430  0.79570  0.97000  1.0000
  H   H3        1.0  0.82570  0.29570  0.47000  1.0000
  H   H4        1.0  0.17430  0.70430  0.97000  1.0000
  C   C5        1.0  0.30241  0.77707  0.47823  1.0000
  C   C6        1.0  0.69759  0.22293  0.97823  1.0000
  C   C7        1.0  0.80241  0.72293  0.47823  1.0000
  C   C8        1.0  0.19759  0.27707  0.97823  1.0000
  H   H5        1.0  0.26080  0.72960  0.54510  1.0000
  H   H6        1.0  0.73920  0.27040  0.04510  1.0000
  H   H7        1.0  0.76080  0.77040  0.54510  1.0000
  H   H8        1.0  0.23920  0.22960  0.04510  1.0000
  C   C9        1.0  0.51172  0.54818  0.74956  1.0000
  C   C10       1.0  0.48828  0.45182  0.24956  1.0000
  C   C11       1.0  0.01172  0.95182  0.74956  1.0000
  C   C12       1.0  0.98828  0.04818  0.24956  1.0000
  H   H9        1.0  0.48860  0.43390  0.74490  1.0000
  H   H10       1.0  0.51140  0.56610  0.24490  1.0000
  H   H11       1.0  0.98860  0.06610  0.74490  1.0000
  H   H12       1.0  0.01140  0.93390  0.24490  1.0000
