data_image0
_chemical_formula_structural       Mg4O24C4H4C4H4C4H4
_chemical_formula_sum              "Mg4 O24 C12 H12"
_cell_length_a       8.8978
_cell_length_b       8.116
_cell_length_c       11.8139
_cell_angle_alpha    90
_cell_angle_beta     90
_cell_angle_gamma    90

_space_group_name_H-M_alt    "P 1"
_space_group_IT_number       1

loop_
  _space_group_symop_operation_xyz
  'x, y, z'

loop_
  _atom_site_type_symbol
  _atom_site_label
  _atom_site_symmetry_multiplicity
  _atom_site_fract_x
  _atom_site_fract_y
  _atom_site_fract_z
  _atom_site_occupancy
  Mg  Mg1       1.0  0.52872  0.50259  0.49986  1.0000
  Mg  Mg2       1.0  0.47128  0.49741  0.99986  1.0000
  Mg  Mg3       1.0  0.02872  0.99741  0.49986  1.0000
  Mg  Mg4       1.0  0.97128  0.00259  0.99986  1.0000
  O   O1        1.0  0.32532  0.39656  0.55966  1.0000
  O   O2        1.0  0.67468  0.60344  0.05966  1.0000
  O   O3        1.0  0.82532  0.10344  0.55966  1.0000
  O   O4        1.0  0.17468  0.89656  0.05966  1.0000
  O   O5        1.0  0.14818  0.20337  0.55681  1.0000
  O   O6        1.0  0.85182  0.79663  0.05681  1.0000
  O   O7        1.0  0.64818  0.29663  0.55681  1.0000
  O   O8        1.0  0.35182  0.70337  0.05681  1.0000
  O   O9        1.0  0.41442  0.71163  0.44232  1.0000
  O   O10       1.0  0.58558  0.28837  0.94232  1.0000
  O   O11       1.0  0.91442  0.78837  0.44232  1.0000
  O   O12       1.0  0.08558  0.21163  0.94232  1.0000
  O   O13       1.0  0.23110  0.89783  0.43816  1.0000
  O   O14       1.0  0.76890  0.10217  0.93816  1.0000
  O   O15       1.0  0.73110  0.60217  0.43816  1.0000
  O   O16       1.0  0.26890  0.39783  0.93816  1.0000
  O   O17       1.0  0.54636  0.61817  0.65898  1.0000
  O   O18       1.0  0.45364  0.38183  0.15898  1.0000
  O   O19       1.0  0.04636  0.88183  0.65898  1.0000
  O   O20       1.0  0.95364  0.11817  0.15898  1.0000
  O   O21       1.0  0.50607  0.61182  0.84430  1.0000
  O   O22       1.0  0.49393  0.38818  0.34430  1.0000
  O   O23       1.0  0.00607  0.88818  0.84430  1.0000
  O   O24       1.0  0.99393  0.11182  0.34430  1.0000
  C   C1        1.0  0.26921  0.26366  0.52528  1.0000
  C   C2        1.0  0.73079  0.73634  0.02528  1.0000
  C   C3        1.0  0.76921  0.23634  0.52528  1.0000
  C   C4        1.0  0.23079  0.76366  0.02528  1.0000
  H   H1        1.0  0.32330  0.20520  0.47130  1.0000
  H   H2        1.0  0.67670  0.79480  0.97130  1.0000
  H   H3        1.0  0.82330  0.29480  0.47130  1.0000
  H   H4        1.0  0.17670  0.70520  0.97130  1.0000
  C   C5        1.0  0.29891  0.77619  0.47842  1.0000
  C   C6        1.0  0.70109  0.22381  0.97842  1.0000
  C   C7        1.0  0.79891  0.72381  0.47842  1.0000
  C   C8        1.0  0.20109  0.27619  0.97842  1.0000
  H   H5        1.0  0.25720  0.72920  0.54300  1.0000
  H   H6        1.0  0.74280  0.27080  0.04300  1.0000
  H   H7        1.0  0.75720  0.77080  0.54300  1.0000
  H   H8        1.0  0.24280  0.22920  0.04300  1.0000
  C   C9        1.0  0.51305  0.54624  0.74956  1.0000
  C   C10       1.0  0.48695  0.45376  0.24956  1.0000
  C   C11       1.0  0.01305  0.95376  0.74956  1.0000
  C   C12       1.0  0.98695  0.04624  0.24956  1.0000
  H   H9        1.0  0.49180  0.43420  0.74540  1.0000
  H   H10       1.0  0.50820  0.56580  0.24540  1.0000
  H   H11       1.0  0.99180  0.06580  0.74540  1.0000
  H   H12       1.0  0.00820  0.93420  0.24540  1.0000
