data_image0
_chemical_formula_structural       Zn6Cl4O16C8H4C4H4C8H4C4H4C8O8C8H4C4H4C4
_chemical_formula_sum              "Zn6 Cl4 O24 C48 H24"
_cell_length_a       12.7216
_cell_length_b       9.496
_cell_length_c       18.09
_cell_angle_alpha    90
_cell_angle_beta     108.228
_cell_angle_gamma    90

_space_group_name_H-M_alt    "P 1"
_space_group_IT_number       1

loop_
  _space_group_symop_operation_xyz
  'x, y, z'

loop_
  _atom_site_type_symbol
  _atom_site_label
  _atom_site_symmetry_multiplicity
  _atom_site_fract_x
  _atom_site_fract_y
  _atom_site_fract_z
  _atom_site_occupancy
  Zn  Zn1       1.0  0.79669  0.95994  0.07309  1.0000
  Zn  Zn2       1.0  0.70331  0.45994  0.42691  1.0000
  Zn  Zn3       1.0  0.20331  0.04006  0.92691  1.0000
  Zn  Zn4       1.0  0.29669  0.54006  0.57309  1.0000
  Zn  Zn5       1.0  1.00000  0.00000  0.00000  1.0000
  Zn  Zn6       1.0  0.50000  0.50000  0.50000  1.0000
  Cl  Cl1       1.0  0.66224  0.84810  0.10191  1.0000
  Cl  Cl2       1.0  0.83776  0.34810  0.39809  1.0000
  Cl  Cl3       1.0  0.33776  0.15190  0.89809  1.0000
  Cl  Cl4       1.0  0.16224  0.65190  0.60191  1.0000
  O   O1        1.0  0.13000  0.87440  0.05300  1.0000
  O   O2        1.0  0.37000  0.37440  0.44700  1.0000
  O   O3        1.0  0.87000  0.12560  0.94700  1.0000
  O   O4        1.0  0.63000  0.62560  0.55300  1.0000
  O   O5        1.0  0.27650  0.91630  0.01420  1.0000
  O   O6        1.0  0.22350  0.41630  0.48580  1.0000
  O   O7        1.0  0.72350  0.08370  0.98580  1.0000
  O   O8        1.0  0.77650  0.58370  0.51420  1.0000
  O   O9        1.0  0.47280  0.58380  0.39140  1.0000
  O   O10       1.0  0.02720  0.08380  0.10860  1.0000
  O   O11       1.0  0.52720  0.41620  0.60860  1.0000
  O   O12       1.0  0.97280  0.91620  0.89140  1.0000
  O   O13       1.0  0.61040  0.57040  0.33990  1.0000
  O   O14       1.0  0.88960  0.07040  0.16010  1.0000
  O   O15       1.0  0.38960  0.42960  0.66010  1.0000
  O   O16       1.0  0.11040  0.92960  0.83990  1.0000
  C   C1        1.0  0.30170  0.79250  0.13120  1.0000
  C   C2        1.0  0.19830  0.29250  0.36880  1.0000
  C   C3        1.0  0.69830  0.20750  0.86880  1.0000
  C   C4        1.0  0.80170  0.70750  0.63120  1.0000
  C   C5        1.0  0.41440  0.77690  0.14110  1.0000
  C   C6        1.0  0.08560  0.27690  0.35890  1.0000
  C   C7        1.0  0.58560  0.22310  0.85890  1.0000
  C   C8        1.0  0.91440  0.72310  0.64110  1.0000
  H   H1        1.0  0.44360  0.80870  0.10300  1.0000
  H   H2        1.0  0.05640  0.30870  0.39700  1.0000
  H   H3        1.0  0.55640  0.19130  0.89700  1.0000
  H   H4        1.0  0.94360  0.69130  0.60300  1.0000
  C   C9        1.0  0.48220  0.71420  0.20770  1.0000
  C   C10       1.0  0.01780  0.21420  0.29230  1.0000
  C   C11       1.0  0.51780  0.28580  0.79230  1.0000
  C   C12       1.0  0.98220  0.78580  0.70770  1.0000
  H   H5        1.0  0.55730  0.70450  0.21420  1.0000
  H   H6        1.0  0.94270  0.20450  0.28580  1.0000
  H   H7        1.0  0.44270  0.29550  0.78580  1.0000
  H   H8        1.0  0.05730  0.79550  0.71420  1.0000
  C   C13       1.0  0.44100  0.66610  0.26410  1.0000
  C   C14       1.0  0.05900  0.16610  0.23590  1.0000
  C   C15       1.0  0.55900  0.33390  0.73590  1.0000
  C   C16       1.0  0.94100  0.83390  0.76410  1.0000
  C   C17       1.0  0.32920  0.67960  0.25260  1.0000
  C   C18       1.0  0.17080  0.17960  0.24740  1.0000
  C   C19       1.0  0.67080  0.32040  0.74740  1.0000
  C   C20       1.0  0.82920  0.82040  0.75260  1.0000
  H   H9        1.0  0.29960  0.64580  0.29010  1.0000
  H   H10       1.0  0.20040  0.14580  0.20990  1.0000
  H   H11       1.0  0.70040  0.35420  0.70990  1.0000
  H   H12       1.0  0.79960  0.85420  0.79010  1.0000
  C   C21       1.0  0.26150  0.74150  0.18730  1.0000
  C   C22       1.0  0.23850  0.24150  0.31270  1.0000
  C   C23       1.0  0.73850  0.25850  0.81270  1.0000
  C   C24       1.0  0.76150  0.75850  0.68730  1.0000
  H   H13       1.0  0.18630  0.74920  0.18080  1.0000
  H   H14       1.0  0.31370  0.24920  0.31920  1.0000
  H   H15       1.0  0.81370  0.25080  0.81920  1.0000
  H   H16       1.0  0.68630  0.75080  0.68080  1.0000
  C   C25       1.0  0.23040  0.86570  0.06060  1.0000
  C   C26       1.0  0.26960  0.36570  0.43940  1.0000
  C   C27       1.0  0.76960  0.13430  0.93940  1.0000
  C   C28       1.0  0.73040  0.63430  0.56060  1.0000
  C   C29       1.0  0.51380  0.60270  0.33750  1.0000
  C   C30       1.0  0.98620  0.10270  0.16250  1.0000
  C   C31       1.0  0.48620  0.39730  0.66250  1.0000
  C   C32       1.0  0.01380  0.89730  0.83750  1.0000
  O   O17       1.0  0.89060  0.84400  0.02830  1.0000
  O   O18       1.0  0.60940  0.34400  0.47170  1.0000
  O   O19       1.0  0.10940  0.15600  0.97170  1.0000
  O   O20       1.0  0.39060  0.65600  0.52830  1.0000
  O   O21       1.0  0.94030  0.73450  0.14210  1.0000
  O   O22       1.0  0.55970  0.23450  0.35790  1.0000
  O   O23       1.0  0.05970  0.26550  0.85790  1.0000
  O   O24       1.0  0.44030  0.76550  0.64210  1.0000
  C   C33       1.0  0.96840  0.61730  0.03600  1.0000
  C   C34       1.0  0.53160  0.11730  0.46400  1.0000
  C   C35       1.0  0.03160  0.38270  0.96400  1.0000
  C   C36       1.0  0.46840  0.88270  0.53600  1.0000
  C   C37       1.0  0.02510  0.50430  0.07990  1.0000
  C   C38       1.0  0.47490  0.00430  0.42010  1.0000
  C   C39       1.0  0.97490  0.49570  0.92010  1.0000
  C   C40       1.0  0.52510  0.99570  0.57990  1.0000
  H   H17       1.0  0.04200  0.50590  0.13380  1.0000
  H   H18       1.0  0.45800  0.00590  0.36620  1.0000
  H   H19       1.0  0.95800  0.49410  0.86620  1.0000
  H   H20       1.0  0.54200  0.99410  0.63380  1.0000
  C   C41       1.0  0.05670  0.38940  0.04430  1.0000
  C   C42       1.0  0.44330  0.88940  0.45570  1.0000
  C   C43       1.0  0.94330  0.61060  0.95570  1.0000
  C   C44       1.0  0.55670  0.11060  0.54430  1.0000
  H   H21       1.0  0.09530  0.31570  0.07470  1.0000
  H   H22       1.0  0.40470  0.81570  0.42530  1.0000
  H   H23       1.0  0.90470  0.68430  0.92530  1.0000
  H   H24       1.0  0.59530  0.18430  0.57470  1.0000
  C   C45       1.0  0.93260  0.73790  0.07390  1.0000
  C   C46       1.0  0.56740  0.23790  0.42610  1.0000
  C   C47       1.0  0.06740  0.26210  0.92610  1.0000
  C   C48       1.0  0.43260  0.76210  0.57390  1.0000
