data_image0
_chemical_formula_structural       Mn4O24C4H4C4H4C4H4
_chemical_formula_sum              "Mn4 O24 C12 H12"
_cell_length_a       8.9394
_cell_length_b       7.834
_cell_length_c       11.7554
_cell_angle_alpha    90
_cell_angle_beta     90
_cell_angle_gamma    90

_space_group_name_H-M_alt    "P 1"
_space_group_IT_number       1

loop_
  _space_group_symop_operation_xyz
  'x, y, z'

loop_
  _atom_site_type_symbol
  _atom_site_label
  _atom_site_symmetry_multiplicity
  _atom_site_fract_x
  _atom_site_fract_y
  _atom_site_fract_z
  _atom_site_occupancy
  Mn  Mn1       1.0  0.53037  0.49960  0.11105  1.0000
  Mn  Mn2       1.0  0.46963  0.50040  0.61105  1.0000
  Mn  Mn3       1.0  0.03037  0.00040  0.11105  1.0000
  Mn  Mn4       1.0  0.96963  0.99960  0.61105  1.0000
  O   O1        1.0  0.31516  0.41878  0.18029  1.0000
  O   O2        1.0  0.68484  0.58122  0.68029  1.0000
  O   O3        1.0  0.81516  0.08122  0.18029  1.0000
  O   O4        1.0  0.18484  0.91878  0.68029  1.0000
  O   O5        1.0  0.12840  0.23357  0.17948  1.0000
  O   O6        1.0  0.87160  0.76643  0.67948  1.0000
  O   O7        1.0  0.62840  0.26643  0.17948  1.0000
  O   O8        1.0  0.37160  0.73357  0.67948  1.0000
  O   O9        1.0  0.43025  0.73037  0.04092  1.0000
  O   O10       1.0  0.56975  0.26963  0.54092  1.0000
  O   O11       1.0  0.93025  0.76963  0.04092  1.0000
  O   O12       1.0  0.06975  0.23037  0.54092  1.0000
  O   O13       1.0  0.24345  0.91637  0.03847  1.0000
  O   O14       1.0  0.75655  0.08363  0.53847  1.0000
  O   O15       1.0  0.74345  0.58363  0.03847  1.0000
  O   O16       1.0  0.25655  0.41637  0.53847  1.0000
  O   O17       1.0  0.55946  0.64440  0.26933  1.0000
  O   O18       1.0  0.44054  0.35560  0.76933  1.0000
  O   O19       1.0  0.05946  0.85560  0.26933  1.0000
  O   O20       1.0  0.94054  0.14440  0.76933  1.0000
  O   O21       1.0  0.51451  0.63986  0.45444  1.0000
  O   O22       1.0  0.48549  0.36014  0.95444  1.0000
  O   O23       1.0  0.01451  0.86014  0.45444  1.0000
  O   O24       1.0  0.98549  0.13986  0.95444  1.0000
  C   C1        1.0  0.25810  0.28020  0.15409  1.0000
  C   C2        1.0  0.74190  0.71980  0.65409  1.0000
  C   C3        1.0  0.75810  0.21980  0.15409  1.0000
  C   C4        1.0  0.24190  0.78020  0.65409  1.0000
  H   H1        1.0  0.31640  0.20470  0.11210  1.0000
  H   H2        1.0  0.68360  0.79530  0.61210  1.0000
  H   H3        1.0  0.81640  0.29530  0.11210  1.0000
  H   H4        1.0  0.18360  0.70470  0.61210  1.0000
  C   C5        1.0  0.31300  0.79250  0.07887  1.0000
  C   C6        1.0  0.68700  0.20750  0.57887  1.0000
  C   C7        1.0  0.81300  0.70750  0.07887  1.0000
  C   C8        1.0  0.18700  0.29250  0.57887  1.0000
  H   H5        1.0  0.27310  0.74200  0.14370  1.0000
  H   H6        1.0  0.72690  0.25800  0.64370  1.0000
  H   H7        1.0  0.77310  0.75800  0.14370  1.0000
  H   H8        1.0  0.22690  0.24200  0.64370  1.0000
  C   C9        1.0  0.53590  0.56890  0.36144  1.0000
  C   C10       1.0  0.46410  0.43110  0.86144  1.0000
  C   C11       1.0  0.03590  0.93110  0.36144  1.0000
  C   C12       1.0  0.96410  0.06890  0.86144  1.0000
  H   H9        1.0  0.53440  0.45020  0.36010  1.0000
  H   H10       1.0  0.46560  0.54980  0.86010  1.0000
  H   H11       1.0  0.03440  0.04980  0.36010  1.0000
  H   H12       1.0  0.96560  0.95020  0.86010  1.0000
