data_image0
_chemical_formula_structural       Mn4O24C4H4C4H4C4H4
_chemical_formula_sum              "Mn4 O24 C12 H12"
_cell_length_a       8.9319
_cell_length_b       7.819
_cell_length_c       11.6928
_cell_angle_alpha    90
_cell_angle_beta     90
_cell_angle_gamma    90

_space_group_name_H-M_alt    "P 1"
_space_group_IT_number       1

loop_
  _space_group_symop_operation_xyz
  'x, y, z'

loop_
  _atom_site_type_symbol
  _atom_site_label
  _atom_site_symmetry_multiplicity
  _atom_site_fract_x
  _atom_site_fract_y
  _atom_site_fract_z
  _atom_site_occupancy
  Mn  Mn1       1.0  0.53490  0.49922  0.11104  1.0000
  Mn  Mn2       1.0  0.46510  0.50078  0.61104  1.0000
  Mn  Mn3       1.0  0.03490  0.00078  0.11104  1.0000
  Mn  Mn4       1.0  0.96510  0.99922  0.61104  1.0000
  O   O1        1.0  0.31966  0.42128  0.18221  1.0000
  O   O2        1.0  0.68034  0.57872  0.68221  1.0000
  O   O3        1.0  0.81966  0.07872  0.18221  1.0000
  O   O4        1.0  0.18034  0.92128  0.68221  1.0000
  O   O5        1.0  0.13175  0.23492  0.18051  1.0000
  O   O6        1.0  0.86825  0.76508  0.68051  1.0000
  O   O7        1.0  0.63175  0.26508  0.18051  1.0000
  O   O8        1.0  0.36825  0.73492  0.68051  1.0000
  O   O9        1.0  0.43476  0.73020  0.03895  1.0000
  O   O10       1.0  0.56524  0.26980  0.53895  1.0000
  O   O11       1.0  0.93476  0.76980  0.03895  1.0000
  O   O12       1.0  0.06524  0.23020  0.53895  1.0000
  O   O13       1.0  0.24803  0.91785  0.03713  1.0000
  O   O14       1.0  0.75197  0.08215  0.53713  1.0000
  O   O15       1.0  0.74803  0.58215  0.03713  1.0000
  O   O16       1.0  0.25197  0.41785  0.53713  1.0000
  O   O17       1.0  0.56268  0.64860  0.26863  1.0000
  O   O18       1.0  0.43732  0.35140  0.76863  1.0000
  O   O19       1.0  0.06268  0.85140  0.26863  1.0000
  O   O20       1.0  0.93732  0.14860  0.76863  1.0000
  O   O21       1.0  0.51277  0.64200  0.45494  1.0000
  O   O22       1.0  0.48723  0.35800  0.95494  1.0000
  O   O23       1.0  0.01277  0.85800  0.45494  1.0000
  O   O24       1.0  0.98723  0.14200  0.95494  1.0000
  C   C1        1.0  0.26450  0.27940  0.15720  1.0000
  C   C2        1.0  0.73550  0.72060  0.65720  1.0000
  C   C3        1.0  0.76450  0.22060  0.15720  1.0000
  C   C4        1.0  0.23550  0.77940  0.65720  1.0000
  H   H1        1.0  0.32620  0.19960  0.11800  1.0000
  H   H2        1.0  0.67380  0.80040  0.61800  1.0000
  H   H3        1.0  0.82620  0.30040  0.11800  1.0000
  H   H4        1.0  0.17380  0.69960  0.61800  1.0000
  C   C5        1.0  0.31780  0.79290  0.07906  1.0000
  C   C6        1.0  0.68220  0.20710  0.57906  1.0000
  C   C7        1.0  0.81780  0.70710  0.07906  1.0000
  C   C8        1.0  0.18220  0.29290  0.57906  1.0000
  H   H5        1.0  0.27830  0.74240  0.14650  1.0000
  H   H6        1.0  0.72170  0.25760  0.64650  1.0000
  H   H7        1.0  0.77830  0.75760  0.14650  1.0000
  H   H8        1.0  0.22170  0.24240  0.64650  1.0000
  C   C9        1.0  0.53900  0.57090  0.36120  1.0000
  C   C10       1.0  0.46100  0.42910  0.86120  1.0000
  C   C11       1.0  0.03900  0.92910  0.36120  1.0000
  C   C12       1.0  0.96100  0.07090  0.86120  1.0000
  H   H9        1.0  0.54110  0.44940  0.35980  1.0000
  H   H10       1.0  0.45890  0.55060  0.85980  1.0000
  H   H11       1.0  0.04110  0.05060  0.35980  1.0000
  H   H12       1.0  0.95890  0.94940  0.85980  1.0000
