data_image0
_chemical_formula_structural       Zn4O24C4H4C4H4C4H4
_chemical_formula_sum              "Zn4 O24 C12 H12"
_cell_length_a       8.664
_cell_length_b       7.7157
_cell_length_c       11.4824
_cell_angle_alpha    90
_cell_angle_beta     90
_cell_angle_gamma    90

_space_group_name_H-M_alt    "P 1"
_space_group_IT_number       1

loop_
  _space_group_symop_operation_xyz
  'x, y, z'

loop_
  _atom_site_type_symbol
  _atom_site_label
  _atom_site_symmetry_multiplicity
  _atom_site_fract_x
  _atom_site_fract_y
  _atom_site_fract_z
  _atom_site_occupancy
  Zn  Zn1       1.0  0.52973  0.49988  0.11117  1.0000
  Zn  Zn2       1.0  0.47027  0.50012  0.61117  1.0000
  Zn  Zn3       1.0  0.02973  0.00012  0.11117  1.0000
  Zn  Zn4       1.0  0.97027  0.99988  0.61117  1.0000
  O   O1        1.0  0.31500  0.42140  0.17771  1.0000
  O   O2        1.0  0.68500  0.57860  0.67771  1.0000
  O   O3        1.0  0.81500  0.07860  0.17771  1.0000
  O   O4        1.0  0.18500  0.92140  0.67771  1.0000
  O   O5        1.0  0.12531  0.22940  0.17872  1.0000
  O   O6        1.0  0.87469  0.77060  0.67872  1.0000
  O   O7        1.0  0.62531  0.27060  0.17872  1.0000
  O   O8        1.0  0.37469  0.72940  0.67872  1.0000
  O   O9        1.0  0.43218  0.72600  0.04046  1.0000
  O   O10       1.0  0.56782  0.27400  0.54046  1.0000
  O   O11       1.0  0.93218  0.77400  0.04046  1.0000
  O   O12       1.0  0.06782  0.22600  0.54046  1.0000
  O   O13       1.0  0.24116  0.91800  0.03946  1.0000
  O   O14       1.0  0.75884  0.08200  0.53946  1.0000
  O   O15       1.0  0.74116  0.58200  0.03946  1.0000
  O   O16       1.0  0.25884  0.41800  0.53946  1.0000
  O   O17       1.0  0.55590  0.64300  0.26621  1.0000
  O   O18       1.0  0.44410  0.35700  0.76621  1.0000
  O   O19       1.0  0.05590  0.85700  0.26621  1.0000
  O   O20       1.0  0.94410  0.14300  0.76621  1.0000
  O   O21       1.0  0.51240  0.63750  0.45649  1.0000
  O   O22       1.0  0.48760  0.36250  0.95649  1.0000
  O   O23       1.0  0.01240  0.86250  0.45649  1.0000
  O   O24       1.0  0.98760  0.13750  0.95649  1.0000
  C   C1        1.0  0.26020  0.27670  0.15280  1.0000
  C   C2        1.0  0.73980  0.72330  0.65280  1.0000
  C   C3        1.0  0.76020  0.22330  0.15280  1.0000
  C   C4        1.0  0.23980  0.77670  0.65280  1.0000
  H   H1        1.0  0.32400  0.19730  0.11180  1.0000
  H   H2        1.0  0.67600  0.80270  0.61180  1.0000
  H   H3        1.0  0.82400  0.30270  0.11180  1.0000
  H   H4        1.0  0.17600  0.69730  0.61180  1.0000
  C   C5        1.0  0.31210  0.79030  0.08217  1.0000
  C   C6        1.0  0.68790  0.20970  0.58217  1.0000
  C   C7        1.0  0.81210  0.70970  0.08217  1.0000
  C   C8        1.0  0.18790  0.29030  0.58217  1.0000
  H   H5        1.0  0.27130  0.73950  0.15090  1.0000
  H   H6        1.0  0.72870  0.26050  0.65090  1.0000
  H   H7        1.0  0.77130  0.76050  0.15090  1.0000
  H   H8        1.0  0.22870  0.23950  0.65090  1.0000
  C   C9        1.0  0.53160  0.56310  0.36210  1.0000
  C   C10       1.0  0.46840  0.43690  0.86210  1.0000
  C   C11       1.0  0.03160  0.93690  0.36210  1.0000
  C   C12       1.0  0.96840  0.06310  0.86210  1.0000
  H   H9        1.0  0.52800  0.44000  0.36080  1.0000
  H   H10       1.0  0.47200  0.56000  0.86080  1.0000
  H   H11       1.0  0.02800  0.06000  0.36080  1.0000
  H   H12       1.0  0.97200  0.94000  0.86080  1.0000
