data_image0
_chemical_formula_structural       Cd2O16C4H4C2H4C2H4C6H4C2H4C2H4C2
_chemical_formula_sum              "Cd2 O16 C20 H24"
_cell_length_a       9.24
_cell_length_b       10.383
_cell_length_c       14.721
_cell_angle_alpha    76.2
_cell_angle_beta     88.463
_cell_angle_gamma    72.035

_space_group_name_H-M_alt    "P 1"
_space_group_IT_number       1

loop_
  _space_group_symop_operation_xyz
  'x, y, z'

loop_
  _atom_site_type_symbol
  _atom_site_label
  _atom_site_symmetry_multiplicity
  _atom_site_fract_x
  _atom_site_fract_y
  _atom_site_fract_z
  _atom_site_occupancy
  Cd  Cd1       1.0  0.04171  0.10953  0.21150  1.0000
  Cd  Cd2       1.0  0.95829  0.89047  0.78850  1.0000
  O   O1        1.0  0.08600  0.28760  0.10290  1.0000
  O   O2        1.0  0.91400  0.71240  0.89710  1.0000
  O   O3        1.0  0.04890  0.34190  0.23790  1.0000
  O   O4        1.0  0.95110  0.65810  0.76210  1.0000
  O   O5        1.0  0.02900  0.85550  0.23430  1.0000
  O   O6        1.0  0.97100  0.14450  0.76570  1.0000
  O   O7        1.0  0.09540  0.97720  0.10690  1.0000
  O   O8        1.0  0.90460  0.02280  0.89310  1.0000
  O   O9        1.0  0.76400  0.16030  0.17880  1.0000
  O   O10       1.0  0.23600  0.83970  0.82120  1.0000
  O   O11       1.0  0.85520  0.13410  0.31890  1.0000
  O   O12       1.0  0.14480  0.86590  0.68110  1.0000
  O   O13       1.0  0.35670  0.04820  0.22690  1.0000
  O   O14       1.0  0.64330  0.95180  0.77310  1.0000
  O   O15       1.0  0.20100  0.01790  0.33970  1.0000
  O   O16       1.0  0.79900  0.98210  0.66030  1.0000
  C   C1        1.0  0.07930  0.36890  0.15510  1.0000
  C   C2        1.0  0.92070  0.63110  0.84490  1.0000
  C   C3        1.0  0.11330  0.50450  0.11150  1.0000
  C   C4        1.0  0.88670  0.49550  0.88850  1.0000
  H   H1        1.0  0.22270  0.48280  0.10730  1.0000
  H   H2        1.0  0.77730  0.51720  0.89270  1.0000
  H   H3        1.0  0.06870  0.53850  0.04810  1.0000
  H   H4        1.0  0.93130  0.46150  0.95190  1.0000
  C   C5        1.0  0.05950  0.62090  0.15980  1.0000
  C   C6        1.0  0.94050  0.37910  0.84020  1.0000
  H   H5        1.0  0.10730  0.59130  0.22230  1.0000
  H   H6        1.0  0.89270  0.40870  0.77770  1.0000
  H   H7        1.0  0.95010  0.64410  0.16550  1.0000
  H   H8        1.0  0.04990  0.35590  0.83450  1.0000
  C   C7        1.0  0.09770  0.74800  0.10560  1.0000
  C   C8        1.0  0.90230  0.25200  0.89440  1.0000
  H   H9        1.0  0.03810  0.78330  0.04660  1.0000
  H   H10       1.0  0.96190  0.21670  0.95340  1.0000
  H   H11       1.0  0.20420  0.71920  0.09110  1.0000
  H   H12       1.0  0.79580  0.28080  0.90890  1.0000
  C   C9        1.0  0.07090  0.86650  0.15340  1.0000
  C   C10       1.0  0.92910  0.13350  0.84660  1.0000
  C   C11       1.0  0.74740  0.15280  0.26340  1.0000
  C   C12       1.0  0.25260  0.84720  0.73660  1.0000
  C   C13       1.0  0.59550  0.15700  0.30440  1.0000
  C   C14       1.0  0.40450  0.84300  0.69560  1.0000
  H   H13       1.0  0.51530  0.19550  0.25520  1.0000
  H   H14       1.0  0.48470  0.80450  0.74480  1.0000
  H   H15       1.0  0.57390  0.21540  0.34880  1.0000
  H   H16       1.0  0.42610  0.78460  0.65120  1.0000
  C   C15       1.0  0.60220  0.00660  0.35420  1.0000
  C   C16       1.0  0.39780  0.99340  0.64580  1.0000
  H   H17       1.0  0.64110  0.94660  0.31190  1.0000
  H   H18       1.0  0.35890  0.05340  0.68810  1.0000
  H   H19       1.0  0.67330  0.97440  0.40820  1.0000
  H   H20       1.0  0.32670  0.02560  0.59180  1.0000
  C   C17       1.0  0.45090  0.99280  0.38580  1.0000
  C   C18       1.0  0.54910  0.00720  0.61420  1.0000
  H   H21       1.0  0.46770  0.89870  0.42380  1.0000
  H   H22       1.0  0.53230  0.10130  0.57620  1.0000
  H   H23       1.0  0.41140  0.05600  0.42600  1.0000
  H   H24       1.0  0.58860  0.94400  0.57400  1.0000
  C   C19       1.0  0.33070  0.02080  0.31140  1.0000
  C   C20       1.0  0.66930  0.97920  0.68860  1.0000
