data_image0
_chemical_formula_structural       Cd4O32C24H8C24H8C8H8C8H8
_chemical_formula_sum              "Cd4 O32 C64 H32"
_cell_length_a       15.347
_cell_length_b       13.5462
_cell_length_c       15.4401
_cell_angle_alpha    90
_cell_angle_beta     94.044
_cell_angle_gamma    90

_space_group_name_H-M_alt    "P 1"
_space_group_IT_number       1

loop_
  _space_group_symop_operation_xyz
  'x, y, z'

loop_
  _atom_site_type_symbol
  _atom_site_label
  _atom_site_symmetry_multiplicity
  _atom_site_fract_x
  _atom_site_fract_y
  _atom_site_fract_z
  _atom_site_occupancy
  Cd  Cd1       1.0  0.50000  0.52541  0.25000  1.0000
  Cd  Cd2       1.0  0.00000  0.02541  0.25000  1.0000
  Cd  Cd3       1.0  0.50000  0.47459  0.75000  1.0000
  Cd  Cd4       1.0  0.00000  0.97459  0.75000  1.0000
  O   O1        1.0  0.38492  0.40243  0.26131  1.0000
  O   O2        1.0  0.61508  0.40243  0.23869  1.0000
  O   O3        1.0  0.88492  0.90243  0.26131  1.0000
  O   O4        1.0  0.11508  0.90243  0.23869  1.0000
  O   O5        1.0  0.61508  0.59757  0.73869  1.0000
  O   O6        1.0  0.38492  0.59757  0.76131  1.0000
  O   O7        1.0  0.11508  0.09757  0.73869  1.0000
  O   O8        1.0  0.88492  0.09757  0.76131  1.0000
  O   O9        1.0  0.42115  0.44797  0.13272  1.0000
  O   O10       1.0  0.57885  0.44797  0.36728  1.0000
  O   O11       1.0  0.92115  0.94797  0.13272  1.0000
  O   O12       1.0  0.07885  0.94797  0.36728  1.0000
  O   O13       1.0  0.57885  0.55203  0.86728  1.0000
  O   O14       1.0  0.42115  0.55203  0.63272  1.0000
  O   O15       1.0  0.07885  0.05203  0.86728  1.0000
  O   O16       1.0  0.92115  0.05203  0.63272  1.0000
  O   O17       1.0  0.14143  0.14841  0.26818  1.0000
  O   O18       1.0  0.85857  0.14841  0.23182  1.0000
  O   O19       1.0  0.64143  0.64841  0.26818  1.0000
  O   O20       1.0  0.35857  0.64841  0.23182  1.0000
  O   O21       1.0  0.85857  0.85159  0.73182  1.0000
  O   O22       1.0  0.14143  0.85159  0.76818  1.0000
  O   O23       1.0  0.35857  0.35159  0.73182  1.0000
  O   O24       1.0  0.64143  0.35159  0.76818  1.0000
  O   O25       1.0  0.05427  0.12657  0.15139  1.0000
  O   O26       1.0  0.94573  0.12657  0.34861  1.0000
  O   O27       1.0  0.55427  0.62657  0.15139  1.0000
  O   O28       1.0  0.44573  0.62657  0.34861  1.0000
  O   O29       1.0  0.94573  0.87343  0.84861  1.0000
  O   O30       1.0  0.05427  0.87343  0.65139  1.0000
  O   O31       1.0  0.44573  0.37343  0.84861  1.0000
  O   O32       1.0  0.55427  0.37343  0.65139  1.0000
  C   C1        1.0  0.37031  0.40422  0.18012  1.0000
  C   C2        1.0  0.62969  0.40422  0.31988  1.0000
  C   C3        1.0  0.87031  0.90422  0.18012  1.0000
  C   C4        1.0  0.12969  0.90422  0.31988  1.0000
  C   C5        1.0  0.62969  0.59578  0.81988  1.0000
  C   C6        1.0  0.37031  0.59578  0.68012  1.0000
  C   C7        1.0  0.12969  0.09578  0.81988  1.0000
  C   C8        1.0  0.87031  0.09578  0.68012  1.0000
  C   C9        1.0  0.28947  0.35694  0.13930  1.0000
  C   C10       1.0  0.71053  0.35694  0.36070  1.0000
  C   C11       1.0  0.78947  0.85694  0.13930  1.0000
  C   C12       1.0  0.21053  0.85694  0.36070  1.0000
  C   C13       1.0  0.71053  0.64306  0.86070  1.0000
  C   C14       1.0  0.28947  0.64306  0.63930  1.0000
  C   C15       1.0  0.21053  0.14306  0.86070  1.0000
  C   C16       1.0  0.78947  0.14306  0.63930  1.0000
  C   C17       1.0  0.24231  0.28852  0.18410  1.0000
  C   C18       1.0  0.75769  0.28852  0.31590  1.0000
  C   C19       1.0  0.74231  0.78852  0.18410  1.0000
  C   C20       1.0  0.25769  0.78852  0.31590  1.0000
  C   C21       1.0  0.75769  0.71148  0.81590  1.0000
  C   C22       1.0  0.24231  0.71148  0.68410  1.0000
  C   C23       1.0  0.25769  0.21148  0.81590  1.0000
  C   C24       1.0  0.74231  0.21148  0.68410  1.0000
  H   H1        1.0  0.26160  0.27030  0.24030  1.0000
  H   H2        1.0  0.73840  0.27030  0.25970  1.0000
  H   H3        1.0  0.76160  0.77030  0.24030  1.0000
  H   H4        1.0  0.23840  0.77030  0.25970  1.0000
  H   H5        1.0  0.73840  0.72970  0.75970  1.0000
  H   H6        1.0  0.26160  0.72970  0.74030  1.0000
  H   H7        1.0  0.23840  0.22970  0.75970  1.0000
  H   H8        1.0  0.76160  0.22970  0.74030  1.0000
  C   C25       1.0  0.16628  0.24709  0.14528  1.0000
  C   C26       1.0  0.83372  0.24709  0.35472  1.0000
  C   C27       1.0  0.66628  0.74709  0.14528  1.0000
  C   C28       1.0  0.33372  0.74709  0.35472  1.0000
  C   C29       1.0  0.83372  0.75291  0.85472  1.0000
  C   C30       1.0  0.16628  0.75291  0.64528  1.0000
  C   C31       1.0  0.33372  0.25291  0.85472  1.0000
  C   C32       1.0  0.66628  0.25291  0.64528  1.0000
  C   C33       1.0  0.11797  0.16925  0.19241  1.0000
  C   C34       1.0  0.88203  0.16925  0.30759  1.0000
  C   C35       1.0  0.61797  0.66925  0.19241  1.0000
  C   C36       1.0  0.38203  0.66925  0.30759  1.0000
  C   C37       1.0  0.88203  0.83075  0.80759  1.0000
  C   C38       1.0  0.11797  0.83075  0.69241  1.0000
  C   C39       1.0  0.38203  0.33075  0.80759  1.0000
  C   C40       1.0  0.61797  0.33075  0.69241  1.0000
  C   C41       1.0  0.13633  0.27752  0.06270  1.0000
  C   C42       1.0  0.86367  0.27752  0.43730  1.0000
  C   C43       1.0  0.63633  0.77752  0.06270  1.0000
  C   C44       1.0  0.36367  0.77752  0.43730  1.0000
  C   C45       1.0  0.86367  0.72248  0.93730  1.0000
  C   C46       1.0  0.13633  0.72248  0.56270  1.0000
  C   C47       1.0  0.36367  0.22248  0.93730  1.0000
  C   C48       1.0  0.63633  0.22248  0.56270  1.0000
  H   H9        1.0  0.08470  0.25140  0.03710  1.0000
  H   H10       1.0  0.91530  0.25140  0.46290  1.0000
  H   H11       1.0  0.58470  0.75140  0.03710  1.0000
  H   H12       1.0  0.41530  0.75140  0.46290  1.0000
  H   H13       1.0  0.91530  0.74860  0.96290  1.0000
  H   H14       1.0  0.08470  0.74860  0.53710  1.0000
  H   H15       1.0  0.41530  0.24860  0.96290  1.0000
  H   H16       1.0  0.58470  0.24860  0.53710  1.0000
  C   C49       1.0  0.18247  0.34639  0.01813  1.0000
  C   C50       1.0  0.81753  0.34639  0.48187  1.0000
  C   C51       1.0  0.68247  0.84639  0.01813  1.0000
  C   C52       1.0  0.31753  0.84639  0.48187  1.0000
  C   C53       1.0  0.81753  0.65361  0.98187  1.0000
  C   C54       1.0  0.18247  0.65361  0.51813  1.0000
  C   C55       1.0  0.31753  0.15361  0.98187  1.0000
  C   C56       1.0  0.68247  0.15361  0.51813  1.0000
  H   H17       1.0  0.16150  0.36700  0.96310  1.0000
  H   H18       1.0  0.83850  0.36700  0.53690  1.0000
  H   H19       1.0  0.66150  0.86700  0.96310  1.0000
  H   H20       1.0  0.33850  0.86700  0.53690  1.0000
  H   H21       1.0  0.83850  0.63300  0.03690  1.0000
  H   H22       1.0  0.16150  0.63300  0.46310  1.0000
  H   H23       1.0  0.33850  0.13300  0.03690  1.0000
  H   H24       1.0  0.66150  0.13300  0.46310  1.0000
  C   C57       1.0  0.25971  0.38455  0.05554  1.0000
  C   C58       1.0  0.74029  0.38455  0.44446  1.0000
  C   C59       1.0  0.75971  0.88455  0.05554  1.0000
  C   C60       1.0  0.24029  0.88455  0.44446  1.0000
  C   C61       1.0  0.74029  0.61545  0.94446  1.0000
  C   C62       1.0  0.25971  0.61545  0.55554  1.0000
  C   C63       1.0  0.24029  0.11545  0.94446  1.0000
  C   C64       1.0  0.75971  0.11545  0.55554  1.0000
  H   H25       1.0  0.29190  0.42880  0.02470  1.0000
  H   H26       1.0  0.70810  0.42880  0.47530  1.0000
  H   H27       1.0  0.79190  0.92880  0.02470  1.0000
  H   H28       1.0  0.20810  0.92880  0.47530  1.0000
  H   H29       1.0  0.70810  0.57120  0.97530  1.0000
  H   H30       1.0  0.29190  0.57120  0.52470  1.0000
  H   H31       1.0  0.20810  0.07120  0.97530  1.0000
  H   H32       1.0  0.79190  0.07120  0.52470  1.0000
