data_image0
_chemical_formula_structural       Co4O8C8H8O16C4H4
_chemical_formula_sum              "Co4 O24 C12 H12"
_cell_length_a       8.565
_cell_length_b       11.642
_cell_length_c       7.8673
_cell_angle_alpha    90
_cell_angle_beta     90
_cell_angle_gamma    90

_space_group_name_H-M_alt    "P 1"
_space_group_IT_number       1

loop_
  _space_group_symop_operation_xyz
  'x, y, z'

loop_
  _atom_site_type_symbol
  _atom_site_label
  _atom_site_symmetry_multiplicity
  _atom_site_fract_x
  _atom_site_fract_y
  _atom_site_fract_z
  _atom_site_occupancy
  Co  Co1       1.0  0.50000  0.50000  0.50000  1.0000
  Co  Co2       1.0  0.00000  0.50000  0.00000  1.0000
  Co  Co3       1.0  0.50000  0.00000  0.50000  1.0000
  Co  Co4       1.0  0.00000  0.00000  0.00000  1.0000
  O   O1        1.0  0.59616  0.43264  0.27529  1.0000
  O   O2        1.0  0.90384  0.56736  0.77529  1.0000
  O   O3        1.0  0.40384  0.93264  0.72471  1.0000
  O   O4        1.0  0.09616  0.06736  0.22471  1.0000
  O   O5        1.0  0.40384  0.56736  0.72471  1.0000
  O   O6        1.0  0.09616  0.43264  0.22471  1.0000
  O   O7        1.0  0.59616  0.06736  0.27529  1.0000
  O   O8        1.0  0.90384  0.93264  0.77529  1.0000
  C   C1        1.0  0.71950  0.46940  0.21490  1.0000
  C   C2        1.0  0.78050  0.53060  0.71490  1.0000
  C   C3        1.0  0.28050  0.96940  0.78510  1.0000
  C   C4        1.0  0.21950  0.03060  0.28510  1.0000
  C   C5        1.0  0.28050  0.53060  0.78510  1.0000
  C   C6        1.0  0.21950  0.46940  0.28510  1.0000
  C   C7        1.0  0.71950  0.03060  0.21490  1.0000
  C   C8        1.0  0.78050  0.96940  0.71490  1.0000
  H   H1        1.0  0.76990  0.52754  0.27454  1.0000
  H   H2        1.0  0.73010  0.47246  0.77454  1.0000
  H   H3        1.0  0.23010  0.02754  0.72546  1.0000
  H   H4        1.0  0.26990  0.97246  0.22546  1.0000
  H   H5        1.0  0.23010  0.47246  0.72546  1.0000
  H   H6        1.0  0.26990  0.52754  0.22546  1.0000
  H   H7        1.0  0.76990  0.97246  0.27454  1.0000
  H   H8        1.0  0.73010  0.02754  0.77454  1.0000
  O   O9        1.0  0.78208  0.43558  0.08184  1.0000
  O   O10       1.0  0.71792  0.56442  0.58184  1.0000
  O   O11       1.0  0.21792  0.93558  0.91816  1.0000
  O   O12       1.0  0.28208  0.06442  0.41816  1.0000
  O   O13       1.0  0.21792  0.56442  0.91816  1.0000
  O   O14       1.0  0.28208  0.43558  0.41816  1.0000
  O   O15       1.0  0.78208  0.06442  0.08184  1.0000
  O   O16       1.0  0.71792  0.93558  0.58184  1.0000
  O   O17       1.0  0.53142  0.34452  0.63171  1.0000
  O   O18       1.0  0.96858  0.65548  0.13171  1.0000
  O   O19       1.0  0.46858  0.84452  0.36829  1.0000
  O   O20       1.0  0.03142  0.15548  0.86829  1.0000
  O   O21       1.0  0.46858  0.65548  0.36829  1.0000
  O   O22       1.0  0.03142  0.34452  0.86829  1.0000
  O   O23       1.0  0.53142  0.15548  0.63171  1.0000
  O   O24       1.0  0.96858  0.84452  0.13171  1.0000
  C   C9        1.0  0.52220  0.25000  0.55910  1.0000
  C   C10       1.0  0.97780  0.75000  0.05910  1.0000
  C   C11       1.0  0.47780  0.75000  0.44090  1.0000
  C   C12       1.0  0.02220  0.25000  0.94090  1.0000
  H   H9        1.0  0.50723  0.25000  0.44206  1.0000
  H   H10       1.0  0.99277  0.75000  0.94206  1.0000
  H   H11       1.0  0.49277  0.75000  0.55794  1.0000
  H   H12       1.0  0.00723  0.25000  0.05794  1.0000
