data_image0
_chemical_formula_structural       U2O16C4H2C4H2C4H2C2H4C4H4C4H4C2
_chemical_formula_sum              "U2 O16 C24 H18"
_cell_length_a       11.175
_cell_length_b       11.2003
_cell_length_c       11.2336
_cell_angle_alpha    61.51
_cell_angle_beta     66.654
_cell_angle_gamma    62.995

_space_group_name_H-M_alt    "P 1"
_space_group_IT_number       1

loop_
  _space_group_symop_operation_xyz
  'x, y, z'

loop_
  _atom_site_type_symbol
  _atom_site_label
  _atom_site_symmetry_multiplicity
  _atom_site_fract_x
  _atom_site_fract_y
  _atom_site_fract_z
  _atom_site_occupancy
  U   U1        1.0  0.70158  0.73732  0.21659  1.0000
  U   U2        1.0  0.29842  0.26268  0.78341  1.0000
  O   O1        1.0  0.72010  0.67420  0.38820  1.0000
  O   O2        1.0  0.27990  0.32580  0.61180  1.0000
  O   O3        1.0  0.67900  0.80120  0.04610  1.0000
  O   O4        1.0  0.32100  0.19880  0.95390  1.0000
  O   O5        1.0  0.47780  0.69350  0.31550  1.0000
  O   O6        1.0  0.52220  0.30650  0.68450  1.0000
  O   O7        1.0  0.65990  0.51660  0.27280  1.0000
  O   O8        1.0  0.34010  0.48340  0.72720  1.0000
  O   O9        1.0  0.90650  0.54790  0.16440  1.0000
  O   O10       1.0  0.09350  0.45210  0.83560  1.0000
  O   O11       1.0  0.94330  0.74270  0.12020  1.0000
  O   O12       1.0  0.05670  0.25730  0.87980  1.0000
  O   O13       1.0  0.29300  0.03090  0.82000  1.0000
  O   O14       1.0  0.70700  0.96910  0.18000  1.0000
  O   O15       1.0  0.50060  0.04240  0.75710  1.0000
  O   O16       1.0  0.49940  0.95760  0.24290  1.0000
  C   C1        1.0  0.39130  0.57400  0.17140  1.0000
  C   C2        1.0  0.60870  0.42600  0.82860  1.0000
  C   C3        1.0  0.28280  0.54550  0.16920  1.0000
  C   C4        1.0  0.71720  0.45450  0.83080  1.0000
  H   H1        1.0  0.23630  0.48860  0.25290  1.0000
  H   H2        1.0  0.76370  0.51140  0.74710  1.0000
  C   C5        1.0  0.24200  0.59940  0.04600  1.0000
  C   C6        1.0  0.75800  0.40060  0.95400  1.0000
  C   C7        1.0  0.30580  0.68790  0.92580  1.0000
  C   C8        1.0  0.69420  0.31210  0.07420  1.0000
  H   H3        1.0  0.27650  0.72720  0.84210  1.0000
  H   H4        1.0  0.72350  0.27280  0.15790  1.0000
  C   C9        1.0  0.41300  0.72020  0.92600  1.0000
  C   C10       1.0  0.58700  0.27980  0.07400  1.0000
  C   C11       1.0  0.45540  0.66090  0.04810  1.0000
  C   C12       1.0  0.54460  0.33910  0.95190  1.0000
  H   H5        1.0  0.53020  0.67970  0.04800  1.0000
  H   H6        1.0  0.46980  0.32030  0.95200  1.0000
  C   C13       1.0  0.44030  0.50310  0.30480  1.0000
  C   C14       1.0  0.55970  0.49690  0.69520  1.0000
  H   H7        1.0  0.35930  0.50900  0.38410  1.0000
  H   H8        1.0  0.64070  0.49100  0.61590  1.0000
  H   H9        1.0  0.49300  0.40020  0.32020  1.0000
  H   H10       1.0  0.50700  0.59980  0.67980  1.0000
  C   C15       1.0  0.53040  0.57350  0.30030  1.0000
  C   C16       1.0  0.46960  0.42650  0.69970  1.0000
  C   C17       1.0  0.13380  0.55470  0.04430  1.0000
  C   C18       1.0  0.86620  0.44530  0.95570  1.0000
  H   H11       1.0  0.13680  0.57980  0.94610  1.0000
  H   H12       1.0  0.86320  0.42020  0.05390  1.0000
  H   H13       1.0  0.15950  0.44880  0.08960  1.0000
  H   H14       1.0  0.84050  0.55120  0.91040  1.0000
  C   C19       1.0  0.98830  0.61930  0.11370  1.0000
  C   C20       1.0  0.01170  0.38070  0.88630  1.0000
  C   C21       1.0  0.48240  0.81820  0.79650  1.0000
  C   C22       1.0  0.51760  0.18180  0.20350  1.0000
  H   H15       1.0  0.47200  0.81700  0.71360  1.0000
  H   H16       1.0  0.52800  0.18300  0.28640  1.0000
  H   H17       1.0  0.58220  0.78140  0.79310  1.0000
  H   H18       1.0  0.41780  0.21860  0.20690  1.0000
  C   C23       1.0  0.42260  0.97160  0.79130  1.0000
  C   C24       1.0  0.57740  0.02840  0.20870  1.0000
