data_image0
_chemical_formula_structural       In6O48C6H2C2H2C4H2C2H2C6H2C2H2C4H2C2H2C6H2C2H2C4H2C2H2C4H2C4H2C4H2C6H2C2H2C4H2C2H2C6H2C2H2C4H2C2H2C6H2C2H2C4H2C2H2C4H2C4H2C4H2C6H2C2H2C4H2C2H2C6H2C2H2C4H2C2H2C6H2C2H2C4H2C2H2C4H2C4H2C4H2C6H2C2H2C4H2C2H2C6H2C2H2C4H2C2H2C6H2C2H2C4H2C2H2C4H2C4H2C4H2
_chemical_formula_sum              "In6 O48 C216 H120"
_cell_length_a       23.5316
_cell_length_b       25.9161
_cell_length_c       27.8566
_cell_angle_alpha    62.3204
_cell_angle_beta     65.0687
_cell_angle_gamma    89.84

_space_group_name_H-M_alt    "P 1"
_space_group_IT_number       1

loop_
  _space_group_symop_operation_xyz
  'x, y, z'

loop_
  _atom_site_type_symbol
  _atom_site_label
  _atom_site_symmetry_multiplicity
  _atom_site_fract_x
  _atom_site_fract_y
  _atom_site_fract_z
  _atom_site_occupancy
  In  In1       1.0  0.84375  0.35200  0.55236  1.0000
  In  In2       1.0  0.15625  0.64800  0.44764  1.0000
  In  In3       1.0  0.34407  0.85276  0.55133  1.0000
  In  In4       1.0  0.65593  0.14724  0.44867  1.0000
  In  In5       1.0  0.09835  0.10519  0.04836  1.0000
  In  In6       1.0  0.90165  0.89481  0.95164  1.0000
  O   O1        1.0  0.83980  0.43240  0.47560  1.0000
  O   O2        1.0  0.16020  0.56760  0.52440  1.0000
  O   O3        1.0  0.77700  0.41650  0.56760  1.0000
  O   O4        1.0  0.22300  0.58350  0.43240  1.0000
  O   O5        1.0  0.41350  0.78420  0.57220  1.0000
  O   O6        1.0  0.58650  0.21580  0.42780  1.0000
  O   O7        1.0  0.43060  0.84990  0.47900  1.0000
  O   O8        1.0  0.56940  0.15010  0.52100  1.0000
  O   O9        1.0  0.00430  0.04330  0.09700  1.0000
  O   O10       1.0  0.99570  0.95670  0.90300  1.0000
  O   O11       1.0  0.07010  0.00120  0.12750  1.0000
  O   O12       1.0  0.92990  0.99880  0.87250  1.0000
  O   O13       1.0  0.75490  0.27720  0.63510  1.0000
  O   O14       1.0  0.24510  0.72280  0.36490  1.0000
  O   O15       1.0  0.77750  0.29700  0.54200  1.0000
  O   O16       1.0  0.22250  0.70300  0.45800  1.0000
  O   O17       1.0  0.41270  0.92400  0.54250  1.0000
  O   O18       1.0  0.58730  0.07600  0.45750  1.0000
  O   O19       1.0  0.34070  0.85390  0.63420  1.0000
  O   O20       1.0  0.65930  0.14610  0.36580  1.0000
  O   O21       1.0  0.12740  0.07680  0.97050  1.0000
  O   O22       1.0  0.87260  0.92320  0.02950  1.0000
  O   O23       1.0  0.19130  0.08750  0.00560  1.0000
  O   O24       1.0  0.80870  0.91250  0.99440  1.0000
  O   O25       1.0  0.89930  0.27670  0.56200  1.0000
  O   O26       1.0  0.10070  0.72330  0.43800  1.0000
  O   O27       1.0  0.92420  0.35260  0.47040  1.0000
  O   O28       1.0  0.07580  0.64740  0.52960  1.0000
  O   O29       1.0  0.05410  0.13330  0.12360  1.0000
  O   O30       1.0  0.94590  0.86670  0.87640  1.0000
  O   O31       1.0  0.14890  0.12090  0.09320  1.0000
  O   O32       1.0  0.85110  0.87910  0.90680  1.0000
  O   O33       1.0  0.34140  0.92810  0.46800  1.0000
  O   O34       1.0  0.65860  0.07190  0.53200  1.0000
  O   O35       1.0  0.26700  0.90580  0.56010  1.0000
  O   O36       1.0  0.73300  0.09420  0.43990  1.0000
  O   O37       1.0  0.92050  0.41660  0.54210  1.0000
  O   O38       1.0  0.07950  0.58340  0.45790  1.0000
  O   O39       1.0  0.85240  0.34340  0.63450  1.0000
  O   O40       1.0  0.14760  0.65660  0.36550  1.0000
  O   O41       1.0  0.04770  0.16610  0.00340  1.0000
  O   O42       1.0  0.95230  0.83390  0.99660  1.0000
  O   O43       1.0  0.14680  0.20640  0.96910  1.0000
  O   O44       1.0  0.85320  0.79360  0.03090  1.0000
  O   O45       1.0  0.26580  0.76920  0.63470  1.0000
  O   O46       1.0  0.73420  0.23080  0.36530  1.0000
  O   O47       1.0  0.28590  0.79000  0.54270  1.0000
  O   O48       1.0  0.71410  0.21000  0.45730  1.0000
  C   C1        1.0  0.80020  0.44980  0.51040  1.0000
  C   C2        1.0  0.19980  0.55020  0.48960  1.0000
  C   C3        1.0  0.78890  0.50960  0.48310  1.0000
  C   C4        1.0  0.21110  0.49040  0.51690  1.0000
  C   C5        1.0  0.82090  0.54820  0.41950  1.0000
  C   C6        1.0  0.17910  0.45180  0.58050  1.0000
  H   H1        1.0  0.84950  0.53530  0.39340  1.0000
  H   H2        1.0  0.15050  0.46470  0.60660  1.0000
  C   C7        1.0  0.81090  0.60460  0.39500  1.0000
  C   C8        1.0  0.18910  0.39540  0.60500  1.0000
  H   H3        1.0  0.83440  0.63110  0.35170  1.0000
  H   H4        1.0  0.16560  0.36890  0.64830  1.0000
  C   C9        1.0  0.76800  0.62470  0.43060  1.0000
  C   C10       1.0  0.23200  0.37530  0.56940  1.0000
  C   C11       1.0  0.73590  0.58600  0.49160  1.0000
  C   C12       1.0  0.26410  0.41400  0.50840  1.0000
  H   H5        1.0  0.70610  0.59920  0.51670  1.0000
  H   H6        1.0  0.29390  0.40080  0.48330  1.0000
  C   C13       1.0  0.74380  0.52440  0.52240  1.0000
  C   C14       1.0  0.25620  0.47560  0.47760  1.0000
  H   H7        1.0  0.71980  0.49740  0.56560  1.0000
  H   H8        1.0  0.28020  0.50260  0.43440  1.0000
  C   C15       1.0  0.44660  0.81010  0.51470  1.0000
  C   C16       1.0  0.55340  0.18990  0.48530  1.0000
  C   C17       1.0  0.50780  0.79380  0.48640  1.0000
  C   C18       1.0  0.49220  0.20620  0.51360  1.0000
  C   C19       1.0  0.52570  0.74790  0.52470  1.0000
  C   C20       1.0  0.47430  0.25210  0.47530  1.0000
  H   H9        1.0  0.49890  0.72530  0.56810  1.0000
  H   H10       1.0  0.50110  0.27470  0.43190  1.0000
  C   C21       1.0  0.58570  0.73660  0.49610  1.0000
  C   C22       1.0  0.41430  0.26340  0.50390  1.0000
  H   H11       1.0  0.60010  0.70650  0.52110  1.0000
  H   H12       1.0  0.39990  0.29350  0.47890  1.0000
  C   C23       1.0  0.62480  0.76770  0.43240  1.0000
  C   C24       1.0  0.37520  0.23230  0.56760  1.0000
  C   C25       1.0  0.60420  0.81180  0.39620  1.0000
  C   C26       1.0  0.39580  0.18820  0.60380  1.0000
  H   H13       1.0  0.62990  0.83290  0.35270  1.0000
  H   H14       1.0  0.37010  0.16710  0.64730  1.0000
  C   C27       1.0  0.54570  0.82600  0.42290  1.0000
  C   C28       1.0  0.45430  0.17400  0.57710  1.0000
  H   H15       1.0  0.53220  0.85710  0.39780  1.0000
  H   H16       1.0  0.46780  0.14290  0.60220  1.0000
  C   C29       1.0  0.01530  0.99940  0.13230  1.0000
  C   C30       1.0  0.98470  0.00060  0.86770  1.0000
  C   C31       1.0  0.96220  0.94560  0.17960  1.0000
  C   C32       1.0  0.03780  0.05440  0.82040  1.0000
  C   C33       1.0  0.97150  0.89420  0.22230  1.0000
  C   C34       1.0  0.02850  0.10580  0.77770  1.0000
  H   H17       1.0  0.01360  0.89310  0.21820  1.0000
  H   H18       1.0  0.98640  0.10690  0.78180  1.0000
  C   C35       1.0  0.92060  0.84520  0.27010  1.0000
  C   C36       1.0  0.07940  0.15480  0.72990  1.0000
  H   H19       1.0  0.92800  0.81110  0.29850  1.0000
  H   H20       1.0  0.07200  0.18890  0.70150  1.0000
  C   C37       1.0  0.85830  0.84540  0.27670  1.0000
  C   C38       1.0  0.14170  0.15460  0.72330  1.0000
  C   C39       1.0  0.85010  0.89590  0.23420  1.0000
  C   C40       1.0  0.14990  0.10410  0.76580  1.0000
  H   H21       1.0  0.80850  0.89690  0.23700  1.0000
  H   H22       1.0  0.19150  0.10310  0.76300  1.0000
  C   C41       1.0  0.90110  0.94520  0.18760  1.0000
  C   C42       1.0  0.09890  0.05480  0.81240  1.0000
  H   H23       1.0  0.89320  0.97990  0.16040  1.0000
  H   H24       1.0  0.10680  0.02010  0.83960  1.0000
  C   C43       1.0  0.76050  0.68690  0.40420  1.0000
  C   C44       1.0  0.23950  0.31310  0.59580  1.0000
  C   C45       1.0  0.70140  0.69790  0.42910  1.0000
  C   C46       1.0  0.29860  0.30210  0.57090  1.0000
  H   H25       1.0  0.66630  0.66500  0.46330  1.0000
  H   H26       1.0  0.33370  0.33500  0.53670  1.0000
  C   C47       1.0  0.69030  0.75670  0.40600  1.0000
  C   C48       1.0  0.30970  0.24330  0.59400  1.0000
  C   C49       1.0  0.74310  0.80440  0.35410  1.0000
  C   C50       1.0  0.25690  0.19560  0.64590  1.0000
  H   H27       1.0  0.73720  0.84400  0.33690  1.0000
  H   H28       1.0  0.26280  0.15600  0.66310  1.0000
  C   C51       1.0  0.80330  0.79410  0.32800  1.0000
  C   C52       1.0  0.19670  0.20590  0.67200  1.0000
  C   C53       1.0  0.81180  0.73470  0.35450  1.0000
  C   C54       1.0  0.18820  0.26530  0.64550  1.0000
  H   H29       1.0  0.85350  0.72780  0.33790  1.0000
  H   H30       1.0  0.14650  0.27220  0.66210  1.0000
  C   C55       1.0  0.74260  0.26900  0.59860  1.0000
  C   C56       1.0  0.25740  0.73100  0.40140  1.0000
  C   C57       1.0  0.68360  0.21960  0.62750  1.0000
  C   C58       1.0  0.31640  0.78040  0.37250  1.0000
  C   C59       1.0  0.66850  0.20610  0.59170  1.0000
  C   C60       1.0  0.33150  0.79390  0.40830  1.0000
  H   H31       1.0  0.69690  0.22510  0.54870  1.0000
  H   H32       1.0  0.30310  0.77490  0.45130  1.0000
  C   C61       1.0  0.61170  0.16480  0.61810  1.0000
  C   C62       1.0  0.38830  0.83520  0.38190  1.0000
  H   H33       1.0  0.60090  0.15690  0.59250  1.0000
  H   H34       1.0  0.39910  0.84310  0.40750  1.0000
  C   C63       1.0  0.57080  0.13510  0.68010  1.0000
  C   C64       1.0  0.42920  0.86490  0.31990  1.0000
  C   C65       1.0  0.58730  0.14850  0.71630  1.0000
  C   C66       1.0  0.41270  0.85150  0.28370  1.0000
  H   H35       1.0  0.55840  0.12960  0.75910  1.0000
  H   H36       1.0  0.44160  0.87040  0.24090  1.0000
  C   C67       1.0  0.64530  0.18900  0.69140  1.0000
  C   C68       1.0  0.35470  0.81100  0.30860  1.0000
  H   H37       1.0  0.65780  0.19530  0.71690  1.0000
  H   H38       1.0  0.34220  0.80470  0.28310  1.0000
  C   C69       1.0  0.38650  0.90100  0.59930  1.0000
  C   C70       1.0  0.61350  0.09900  0.40070  1.0000
  C   C71       1.0  0.40290  0.92990  0.62770  1.0000
  C   C72       1.0  0.59710  0.07010  0.37230  1.0000
  C   C73       1.0  0.45160  0.98380  0.59100  1.0000
  C   C74       1.0  0.54840  0.01620  0.40900  1.0000
  H   H39       1.0  0.47550  0.99960  0.54780  1.0000
  H   H40       1.0  0.52450  0.00040  0.45220  1.0000
  C   C75       1.0  0.46530  0.01380  0.61630  1.0000
  C   C76       1.0  0.53470  0.98620  0.38370  1.0000
  H   H41       1.0  0.49830  0.04990  0.59080  1.0000
  H   H42       1.0  0.50170  0.95010  0.40920  1.0000
  C   C77       1.0  0.43020  0.99070  0.67950  1.0000
  C   C78       1.0  0.56980  0.00930  0.32050  1.0000
  C   C79       1.0  0.38440  0.93690  0.71550  1.0000
  C   C80       1.0  0.61560  0.06310  0.28450  1.0000
  H   H43       1.0  0.36200  0.91960  0.75890  1.0000
  H   H44       1.0  0.63800  0.08040  0.24110  1.0000
  C   C81       1.0  0.37070  0.90800  0.68940  1.0000
  C   C82       1.0  0.62930  0.09200  0.31060  1.0000
  H   H45       1.0  0.33790  0.87180  0.71510  1.0000
  H   H46       1.0  0.66210  0.12820  0.28490  1.0000
  C   C83       1.0  0.18150  0.07870  0.96790  1.0000
  C   C84       1.0  0.81850  0.92130  0.03210  1.0000
  C   C85       1.0  0.23240  0.06950  0.92160  1.0000
  C   C86       1.0  0.76760  0.93050  0.07840  1.0000
  C   C87       1.0  0.22370  0.06150  0.87950  1.0000
  C   C88       1.0  0.77630  0.93850  0.12050  1.0000
  H   H47       1.0  0.18270  0.06010  0.88090  1.0000
  H   H48       1.0  0.81730  0.93990  0.11910  1.0000
  C   C89       1.0  0.27510  0.05540  0.83460  1.0000
  C   C90       1.0  0.72490  0.94460  0.16540  1.0000
  H   H49       1.0  0.26800  0.04780  0.80710  1.0000
  H   H50       1.0  0.73200  0.95220  0.19290  1.0000
  C   C91       1.0  0.33710  0.06020  0.82960  1.0000
  C   C92       1.0  0.66290  0.93980  0.17040  1.0000
  C   C93       1.0  0.34540  0.06940  0.87290  1.0000
  C   C94       1.0  0.65460  0.93060  0.12710  1.0000
  H   H51       1.0  0.38660  0.07310  0.87100  1.0000
  H   H52       1.0  0.61340  0.92690  0.12900  1.0000
  C   C95       1.0  0.29100  0.07300  0.91910  1.0000
  C   C96       1.0  0.70900  0.92700  0.08090  1.0000
  H   H53       1.0  0.29600  0.07810  0.94890  1.0000
  H   H54       1.0  0.70400  0.92190  0.05110  1.0000
  C   C97       1.0  0.50840  0.09450  0.70710  1.0000
  C   C98       1.0  0.49160  0.90550  0.29290  1.0000
  C   C99       1.0  0.50170  0.05950  0.68290  1.0000
  C   C100      1.0  0.49830  0.94050  0.31710  1.0000
  H   H55       1.0  0.53810  0.05930  0.65040  1.0000
  H   H56       1.0  0.46190  0.94070  0.34960  1.0000
  C   C101      1.0  0.43970  0.02420  0.70780  1.0000
  C   C102      1.0  0.56030  0.97580  0.29220  1.0000
  C   C103      1.0  0.38800  0.02410  0.75490  1.0000
  C   C104      1.0  0.61200  0.97590  0.24510  1.0000
  H   H57       1.0  0.34680  0.99980  0.77180  1.0000
  H   H58       1.0  0.65320  0.00020  0.22820  1.0000
  C   C105      1.0  0.39490  0.05980  0.77930  1.0000
  C   C106      1.0  0.60510  0.94020  0.22070  1.0000
  C   C107      1.0  0.45470  0.09290  0.75560  1.0000
  C   C108      1.0  0.54530  0.90710  0.24440  1.0000
  H   H59       1.0  0.45990  0.11570  0.77280  1.0000
  H   H60       1.0  0.54010  0.88430  0.22720  1.0000
  C   C109      1.0  0.93050  0.30430  0.50300  1.0000
  C   C110      1.0  0.06950  0.69570  0.49700  1.0000
  C   C111      1.0  0.97510  0.27150  0.47610  1.0000
  C   C112      1.0  0.02490  0.72850  0.52390  1.0000
  C   C113      1.0  0.00780  0.29620  0.41460  1.0000
  C   C114      1.0  0.99220  0.70380  0.58540  1.0000
  H   H61       1.0  0.00390  0.33460  0.38890  1.0000
  H   H62       1.0  0.99610  0.66540  0.61110  1.0000
  C   C115      1.0  0.04600  0.26750  0.38860  1.0000
  C   C116      1.0  0.95400  0.73250  0.61140  1.0000
  H   H63       1.0  0.06850  0.28580  0.34500  1.0000
  H   H64       1.0  0.93150  0.71420  0.65500  1.0000
  C   C117      1.0  0.05210  0.21310  0.42430  1.0000
  C   C118      1.0  0.94790  0.78690  0.57570  1.0000
  C   C119      1.0  0.02410  0.18990  0.48540  1.0000
  C   C120      1.0  0.97590  0.81010  0.51460  1.0000
  H   H65       1.0  0.03180  0.15350  0.51040  1.0000
  H   H66       1.0  0.96820  0.84650  0.48960  1.0000
  C   C121      1.0  0.98440  0.21810  0.51220  1.0000
  C   C122      1.0  0.01560  0.78190  0.48780  1.0000
  H   H67       1.0  0.96350  0.20060  0.55570  1.0000
  H   H68       1.0  0.03650  0.79940  0.44430  1.0000
  C   C123      1.0  0.10220  0.13390  0.12780  1.0000
  C   C124      1.0  0.89780  0.86610  0.87220  1.0000
  C   C125      1.0  0.10940  0.14130  0.17350  1.0000
  C   C126      1.0  0.89060  0.85870  0.82650  1.0000
  C   C127      1.0  0.06150  0.15350  0.21340  1.0000
  C   C128      1.0  0.93850  0.84650  0.78660  1.0000
  H   H69       1.0  0.02420  0.16060  0.20840  1.0000
  H   H70       1.0  0.97580  0.83940  0.79160  1.0000
  C   C129      1.0  0.06490  0.15580  0.25940  1.0000
  C   C130      1.0  0.93510  0.84420  0.74060  1.0000
  H   H71       1.0  0.02870  0.16120  0.28790  1.0000
  H   H72       1.0  0.97130  0.83880  0.71210  1.0000
  C   C131      1.0  0.12060  0.15050  0.26620  1.0000
  C   C132      1.0  0.87940  0.84950  0.73380  1.0000
  C   C133      1.0  0.17120  0.14510  0.22210  1.0000
  C   C134      1.0  0.82880  0.85490  0.77790  1.0000
  H   H73       1.0  0.21160  0.14530  0.22200  1.0000
  H   H74       1.0  0.78840  0.85470  0.77800  1.0000
  C   C135      1.0  0.16490  0.13930  0.17790  1.0000
  C   C136      1.0  0.83510  0.86070  0.82210  1.0000
  H   H75       1.0  0.20060  0.13370  0.14930  1.0000
  H   H76       1.0  0.79940  0.86630  0.85070  1.0000
  C   C137      1.0  0.29310  0.93720  0.50190  1.0000
  C   C138      1.0  0.70690  0.06280  0.49810  1.0000
  C   C139      1.0  0.26140  0.98550  0.47370  1.0000
  C   C140      1.0  0.73860  0.01450  0.52630  1.0000
  C   C141      1.0  0.28480  0.01870  0.41050  1.0000
  C   C142      1.0  0.71520  0.98130  0.58950  1.0000
  H   H77       1.0  0.32270  0.01310  0.38410  1.0000
  H   H78       1.0  0.67730  0.98690  0.61590  1.0000
  C   C143      1.0  0.25280  0.06040  0.38530  1.0000
  C   C144      1.0  0.74720  0.93960  0.61470  1.0000
  H   H79       1.0  0.26910  0.08210  0.34190  1.0000
  H   H80       1.0  0.73090  0.91790  0.65810  1.0000
  C   C145      1.0  0.19960  0.07080  0.42070  1.0000
  C   C146      1.0  0.80040  0.92920  0.57930  1.0000
  C   C147      1.0  0.17760  0.03980  0.48280  1.0000
  C   C148      1.0  0.82240  0.96020  0.51720  1.0000
  H   H81       1.0  0.14060  0.04740  0.50800  1.0000
  H   H82       1.0  0.85940  0.95260  0.49200  1.0000
  C   C149      1.0  0.20720  0.99660  0.51190  1.0000
  C   C150      1.0  0.79280  0.00340  0.48810  1.0000
  H   H83       1.0  0.19100  0.97620  0.55530  1.0000
  H   H84       1.0  0.80900  0.02380  0.44470  1.0000
  C   C151      1.0  0.09240  0.17810  0.39480  1.0000
  C   C152      1.0  0.90760  0.82190  0.60520  1.0000
  C   C153      1.0  0.09040  0.18070  0.34570  1.0000
  C   C154      1.0  0.90960  0.81930  0.65430  1.0000
  H   H85       1.0  0.06480  0.20400  0.32950  1.0000
  H   H86       1.0  0.93520  0.79600  0.67050  1.0000
  C   C155      1.0  0.12510  0.14970  0.31940  1.0000
  C   C156      1.0  0.87490  0.85030  0.68060  1.0000
  C   C157      1.0  0.15830  0.11410  0.34580  1.0000
  C   C158      1.0  0.84170  0.88590  0.65420  1.0000
  H   H87       1.0  0.18030  0.09110  0.32870  1.0000
  H   H88       1.0  0.81970  0.90890  0.67130  1.0000
  C   C159      1.0  0.16200  0.10920  0.39490  1.0000
  C   C160      1.0  0.83800  0.89080  0.60510  1.0000
  C   C161      1.0  0.12690  0.14200  0.41970  1.0000
  C   C162      1.0  0.87310  0.85800  0.58030  1.0000
  H   H89       1.0  0.12690  0.13930  0.45490  1.0000
  H   H90       1.0  0.87310  0.86070  0.54510  1.0000
  C   C163      1.0  0.89900  0.38830  0.60020  1.0000
  C   C164      1.0  0.10100  0.61170  0.39980  1.0000
  C   C165      1.0  0.92830  0.41000  0.62790  1.0000
  C   C166      1.0  0.07170  0.59000  0.37210  1.0000
  C   C167      1.0  0.97840  0.46050  0.59170  1.0000
  C   C168      1.0  0.02160  0.53950  0.40830  1.0000
  H   H91       1.0  0.99190  0.48500  0.54890  1.0000
  H   H92       1.0  0.00810  0.51500  0.45110  1.0000
  C   C169      1.0  0.00860  0.47520  0.61750  1.0000
  C   C170      1.0  0.99140  0.52480  0.38250  1.0000
  H   H93       1.0  0.04320  0.51000  0.59190  1.0000
  H   H94       1.0  0.95680  0.49000  0.40810  1.0000
  C   C171      1.0  0.99080  0.44150  0.67960  1.0000
  C   C172      1.0  0.00920  0.55850  0.32040  1.0000
  C   C173      1.0  0.93820  0.39200  0.71550  1.0000
  C   C174      1.0  0.06180  0.60800  0.28450  1.0000
  H   H95       1.0  0.92340  0.36860  0.75860  1.0000
  H   H96       1.0  0.07660  0.63140  0.24140  1.0000
  C   C175      1.0  0.90730  0.37620  0.69050  1.0000
  C   C176      1.0  0.09270  0.62380  0.30950  1.0000
  H   H97       1.0  0.87180  0.34230  0.71600  1.0000
  H   H98       1.0  0.12820  0.65770  0.28400  1.0000
  C   C177      1.0  0.09670  0.21330  0.96430  1.0000
  C   C178      1.0  0.90330  0.78670  0.03570  1.0000
  C   C179      1.0  0.08770  0.26650  0.92120  1.0000
  C   C180      1.0  0.91230  0.73350  0.07880  1.0000
  C   C181      1.0  0.13910  0.31640  0.87950  1.0000
  C   C182      1.0  0.86090  0.68360  0.12050  1.0000
  H   H99       1.0  0.17800  0.31670  0.88230  1.0000
  H   H100      1.0  0.82200  0.68330  0.11770  1.0000
  C   C183      1.0  0.13320  0.36670  0.83300  1.0000
  C   C184      1.0  0.86680  0.63330  0.16700  1.0000
  H   H101      1.0  0.16850  0.40090  0.80390  1.0000
  H   H102      1.0  0.83150  0.59910  0.19610  1.0000
  C   C185      1.0  0.07560  0.36660  0.82940  1.0000
  C   C186      1.0  0.92440  0.63340  0.17060  1.0000
  C   C187      1.0  0.02410  0.31650  0.87400  1.0000
  C   C188      1.0  0.97590  0.68350  0.12600  1.0000
  H   H103      1.0  0.98490  0.31600  0.87190  1.0000
  H   H104      1.0  0.01510  0.68400  0.12810  1.0000
  C   C189      1.0  0.02810  0.26840  0.92030  1.0000
  C   C190      1.0  0.97190  0.73160  0.07970  1.0000
  H   H105      1.0  0.99120  0.23620  0.95190  1.0000
  H   H106      1.0  0.00880  0.76380  0.04810  1.0000
  C   C191      1.0  0.25590  0.75600  0.60070  1.0000
  C   C192      1.0  0.74410  0.24400  0.39930  1.0000
  C   C193      1.0  0.21090  0.69940  0.62620  1.0000
  C   C194      1.0  0.78910  0.30060  0.37380  1.0000
  C   C195      1.0  0.18040  0.65950  0.69020  1.0000
  C   C196      1.0  0.81960  0.34050  0.30980  1.0000
  H   H107      1.0  0.18570  0.67070  0.71640  1.0000
  H   H108      1.0  0.81430  0.32930  0.28360  1.0000
  C   C197      1.0  0.14250  0.60350  0.71510  1.0000
  C   C198      1.0  0.85750  0.39650  0.28490  1.0000
  H   H109      1.0  0.12400  0.57590  0.75810  1.0000
  H   H110      1.0  0.87600  0.42410  0.24190  1.0000
  C   C199      1.0  0.13110  0.58730  0.67920  1.0000
  C   C200      1.0  0.86890  0.41270  0.32080  1.0000
  C   C201      1.0  0.15700  0.62750  0.61710  1.0000
  C   C202      1.0  0.84300  0.37250  0.38290  1.0000
  H   H111      1.0  0.14750  0.61760  0.59210  1.0000
  H   H112      1.0  0.85250  0.38240  0.40790  1.0000
  C   C203      1.0  0.19760  0.68340  0.59080  1.0000
  C   C204      1.0  0.80240  0.31660  0.40920  1.0000
  H   H113      1.0  0.21620  0.71060  0.54760  1.0000
  H   H114      1.0  0.78380  0.28940  0.45240  1.0000
  C   C205      1.0  0.02820  0.45570  0.70530  1.0000
  C   C206      1.0  0.97180  0.54430  0.29470  1.0000
  C   C207      1.0  0.03450  0.40790  0.75340  1.0000
  C   C208      1.0  0.96550  0.59210  0.24660  1.0000
  H   H115      1.0  0.01440  0.36790  0.76880  1.0000
  H   H116      1.0  0.98560  0.63210  0.23120  1.0000
  C   C209      1.0  0.06870  0.41800  0.77820  1.0000
  C   C210      1.0  0.93130  0.58200  0.22180  1.0000
  C   C211      1.0  0.09930  0.47700  0.75460  1.0000
  C   C212      1.0  0.90070  0.52300  0.24540  1.0000
  H   H117      1.0  0.12280  0.48430  0.77230  1.0000
  H   H118      1.0  0.87720  0.51570  0.22770  1.0000
  C   C213      1.0  0.09570  0.52560  0.70510  1.0000
  C   C214      1.0  0.90430  0.47440  0.29490  1.0000
  C   C215      1.0  0.06030  0.51410  0.68110  1.0000
  C   C216      1.0  0.93970  0.48590  0.31890  1.0000
  H   H119      1.0  0.05770  0.54640  0.64750  1.0000
  H   H120      1.0  0.94230  0.45360  0.35250  1.0000
