data_image0
_chemical_formula_structural       U2O22C2H2C4H2C6H2C4H2C14H2C4H2
_chemical_formula_sum              "U2 O22 C34 H12"
_cell_length_a       9.664
_cell_length_b       11.505
_cell_length_c       14.704
_cell_angle_alpha    83.42
_cell_angle_beta     74.84
_cell_angle_gamma    84.16

_space_group_name_H-M_alt    "P 1"
_space_group_IT_number       1

loop_
  _space_group_symop_operation_xyz
  'x, y, z'

loop_
  _atom_site_type_symbol
  _atom_site_label
  _atom_site_symmetry_multiplicity
  _atom_site_fract_x
  _atom_site_fract_y
  _atom_site_fract_z
  _atom_site_occupancy
  U   U1        1.0  0.51304  0.63956  0.63194  1.0000
  U   U2        1.0  0.48696  0.36044  0.36806  1.0000
  O   O1        1.0  0.33290  0.68310  0.69200  1.0000
  O   O2        1.0  0.66710  0.31690  0.30800  1.0000
  O   O3        1.0  0.68940  0.59000  0.57150  1.0000
  O   O4        1.0  0.31060  0.41000  0.42850  1.0000
  O   O5        1.0  0.32410  0.92710  0.54250  1.0000
  O   O6        1.0  0.67590  0.07290  0.45750  1.0000
  O   O7        1.0  0.53690  0.53760  0.77670  1.0000
  O   O8        1.0  0.46310  0.46240  0.22330  1.0000
  O   O9        1.0  0.60460  0.76060  0.71410  1.0000
  O   O10       1.0  0.39540  0.23940  0.28590  1.0000
  O   O11       1.0  0.41840  0.63400  0.49590  1.0000
  O   O12       1.0  0.58160  0.36600  0.50410  1.0000
  O   O13       1.0  0.80350  0.74290  0.76680  1.0000
  O   O14       1.0  0.19650  0.25710  0.23320  1.0000
  O   O15       1.0  0.54830  0.55680  0.36390  1.0000
  O   O16       1.0  0.45170  0.44320  0.63610  1.0000
  O   O17       1.0  0.53150  0.81670  0.53720  1.0000
  O   O18       1.0  0.46850  0.18330  0.46280  1.0000
  O   O19       1.0  0.63270  0.96230  0.05230  1.0000
  O   O20       1.0  0.36730  0.03770  0.94770  1.0000
  O   O21       1.0  0.32850  0.50220  0.88310  1.0000
  O   O22       1.0  0.67150  0.49780  0.11690  1.0000
  C   C1        1.0  0.42000  0.71560  0.06820  1.0000
  C   C2        1.0  0.58000  0.28440  0.93180  1.0000
  H   H1        1.0  0.36430  0.71530  0.13030  1.0000
  H   H2        1.0  0.63570  0.28470  0.86970  1.0000
  C   C3        1.0  0.52980  0.79120  0.03590  1.0000
  C   C4        1.0  0.47020  0.20880  0.96410  1.0000
  C   C5        1.0  0.45750  0.97100  0.33930  1.0000
  C   C6        1.0  0.54250  0.02900  0.66070  1.0000
  H   H3        1.0  0.43460  0.04090  0.36780  1.0000
  H   H4        1.0  0.56540  0.95910  0.63220  1.0000
  C   C7        1.0  0.45700  0.86540  0.39490  1.0000
  C   C8        1.0  0.54300  0.13460  0.60510  1.0000
  C   C9        1.0  0.67390  0.73780  0.77860  1.0000
  C   C10       1.0  0.32610  0.26220  0.22140  1.0000
  C   C11       1.0  0.39310  0.64060  0.00840  1.0000
  C   C12       1.0  0.60690  0.35940  0.99160  1.0000
  H   H5        1.0  0.32100  0.58910  0.03140  1.0000
  H   H6        1.0  0.67900  0.41090  0.96860  1.0000
  C   C13       1.0  0.58220  0.71880  0.87980  1.0000
  C   C14       1.0  0.41780  0.28120  0.12020  1.0000
  C   C15       1.0  0.51330  0.76130  0.25360  1.0000
  C   C16       1.0  0.48670  0.23870  0.74640  1.0000
  H   H7        1.0  0.52940  0.69150  0.22490  1.0000
  H   H8        1.0  0.47060  0.30850  0.77510  1.0000
  C   C17       1.0  0.43140  0.87000  0.50090  1.0000
  C   C18       1.0  0.56860  0.13000  0.49910  1.0000
  C   C19       1.0  0.48380  0.64200  0.40820  1.0000
  C   C20       1.0  0.51620  0.35800  0.59180  1.0000
  C   C21       1.0  0.51690  0.86760  0.19880  1.0000
  C   C22       1.0  0.48310  0.13240  0.80120  1.0000
  C   C23       1.0  0.44040  0.55340  0.85430  1.0000
  C   C24       1.0  0.55960  0.44660  0.14570  1.0000
  C   C25       1.0  0.48560  0.75840  0.35240  1.0000
  C   C26       1.0  0.51440  0.24160  0.64760  1.0000
  C   C27       1.0  0.56390  0.87950  0.09140  1.0000
  C   C28       1.0  0.43610  0.12050  0.90860  1.0000
  C   C29       1.0  0.61010  0.79020  0.94220  1.0000
  C   C30       1.0  0.38990  0.20980  0.05780  1.0000
  H   H9        1.0  0.68520  0.83910  0.92060  1.0000
  H   H10       1.0  0.31480  0.16090  0.07940  1.0000
  C   C31       1.0  0.47270  0.64140  0.91400  1.0000
  C   C32       1.0  0.52730  0.35860  0.08600  1.0000
  C   C33       1.0  0.49170  0.97340  0.24190  1.0000
  C   C34       1.0  0.50830  0.02660  0.75810  1.0000
  H   H11       1.0  0.49820  0.04480  0.20490  1.0000
  H   H12       1.0  0.50180  0.95520  0.79510  1.0000
