data_image0
_chemical_formula_structural       Tb2O2N2C2N2O2C2H2Sr2O2N2C2H2O2C2H2O2C2O2C2O2C2O2C2O2C2H2O2C2H2O2C2H2O2C4O2H4C2O2H4O2H4C4H2O2H4C2H2O2H4C2H2C6
_chemical_formula_sum              "Tb2 O34 N6 C42 H38 Sr2"
_cell_length_a       10.248
_cell_length_b       10.9912
_cell_length_c       17.4668
_cell_angle_alpha    101.49
_cell_angle_beta     99.305
_cell_angle_gamma    108.269

_space_group_name_H-M_alt    "P 1"
_space_group_IT_number       1

loop_
  _space_group_symop_operation_xyz
  'x, y, z'

loop_
  _atom_site_type_symbol
  _atom_site_label
  _atom_site_symmetry_multiplicity
  _atom_site_fract_x
  _atom_site_fract_y
  _atom_site_fract_z
  _atom_site_occupancy
  Tb  Tb1       1.0  0.54624  0.07985  0.27646  1.0000
  Tb  Tb2       1.0  0.45376  0.92015  0.72355  1.0000
  O   O1        1.0  0.35340  0.89670  0.18388  1.0000
  O   O2        1.0  0.64660  0.10330  0.81612  1.0000
  N   N1        1.0  0.30320  0.06570  0.29175  1.0000
  N   N2        1.0  0.69680  0.93430  0.70825  1.0000
  C   C1        1.0  0.19020  0.96210  0.24580  1.0000
  C   C2        1.0  0.80980  0.03790  0.75420  1.0000
  N   N3        1.0  0.61660  0.06440  0.14581  1.0000
  N   N4        1.0  0.38340  0.93560  0.85419  1.0000
  O   O3        1.0  0.12490  0.77130  0.13710  1.0000
  O   O4        1.0  0.87510  0.22870  0.86290  1.0000
  C   C3        1.0  0.05560  0.94610  0.25630  1.0000
  C   C4        1.0  0.94440  0.05390  0.74370  1.0000
  H   H1        1.0  0.97810  0.87300  0.22450  1.0000
  H   H2        1.0  0.02190  0.12700  0.77550  1.0000
  Sr  Sr1       1.0  0.47632  0.60323  0.40127  1.0000
  Sr  Sr2       1.0  0.52368  0.39677  0.59873  1.0000
  O   O5        1.0  0.53250  0.25810  0.37600  1.0000
  O   O6        1.0  0.46750  0.74190  0.62400  1.0000
  N   N5        1.0  0.73030  0.12740  0.40252  1.0000
  N   N6        1.0  0.26970  0.87260  0.59748  1.0000
  C   C5        1.0  0.03800  0.04010  0.31480  1.0000
  C   C6        1.0  0.96200  0.95990  0.68520  1.0000
  H   H3        1.0  0.94830  0.03080  0.32290  1.0000
  H   H4        1.0  0.05170  0.96920  0.67710  1.0000
  O   O7        1.0  0.41800  0.36010  0.44797  1.0000
  O   O8        1.0  0.58200  0.63990  0.55203  1.0000
  C   C7        1.0  0.15460  0.14830  0.36120  1.0000
  C   C8        1.0  0.84540  0.85170  0.63880  1.0000
  H   H5        1.0  0.14470  0.21360  0.40030  1.0000
  H   H6        1.0  0.85530  0.78640  0.59970  1.0000
  O   O9        1.0  0.48800  0.22510  0.19779  1.0000
  O   O10       1.0  0.51200  0.77490  0.80221  1.0000
  C   C9        1.0  0.28580  0.15680  0.34810  1.0000
  C   C10       1.0  0.71420  0.84320  0.65190  1.0000
  O   O11       1.0  0.54540  0.34310  0.10990  1.0000
  O   O12       1.0  0.45460  0.65690  0.89010  1.0000
  C   C11       1.0  0.22430  0.86820  0.18370  1.0000
  C   C12       1.0  0.77570  0.13180  0.81630  1.0000
  O   O13       1.0  0.65490  0.91700  0.24099  1.0000
  O   O14       1.0  0.34510  0.08300  0.75901  1.0000
  C   C13       1.0  0.42220  0.26720  0.39540  1.0000
  C   C14       1.0  0.57780  0.73280  0.60460  1.0000
  O   O15       1.0  0.71600  0.78780  0.14879  1.0000
  O   O16       1.0  0.28400  0.21220  0.85121  1.0000
  C   C15       1.0  0.60660  0.15180  0.10390  1.0000
  C   C16       1.0  0.39340  0.84820  0.89610  1.0000
  O   O17       1.0  0.76490  0.26170  0.29529  1.0000
  O   O18       1.0  0.23510  0.73830  0.70471  1.0000
  C   C17       1.0  0.64930  0.14980  0.03310  1.0000
  C   C18       1.0  0.35070  0.85020  0.96690  1.0000
  H   H7        1.0  0.64130  0.21140  0.00490  1.0000
  H   H8        1.0  0.35870  0.78860  0.99510  1.0000
  O   O19       1.0  0.96880  0.41220  0.37220  1.0000
  O   O20       1.0  0.03120  0.58780  0.62780  1.0000
  C   C19       1.0  0.70440  0.05430  0.00460  1.0000
  C   C20       1.0  0.29560  0.94570  0.99540  1.0000
  H   H9        1.0  0.73480  0.05120  0.95720  1.0000
  H   H10       1.0  0.26520  0.94880  0.04280  1.0000
  O   O21       1.0  0.48410  0.93520  0.36167  1.0000
  O   O22       1.0  0.51590  0.06480  0.63833  1.0000
  C   C21       1.0  0.71330  0.96390  0.04800  1.0000
  C   C22       1.0  0.28670  0.03610  0.95200  1.0000
  H   H11       1.0  0.74800  0.89780  0.02950  1.0000
  H   H12       1.0  0.25200  0.10220  0.97050  1.0000
  O   O23       1.0  0.54240  0.85390  0.46455  1.0000
  O   O24       1.0  0.45760  0.14610  0.53545  1.0000
  C   C23       1.0  0.67000  0.97260  0.11920  1.0000
  C   C24       1.0  0.33000  0.02740  0.88080  1.0000
  C   C25       1.0  0.54130  0.24790  0.14030  1.0000
  C   C26       1.0  0.45870  0.75210  0.85970  1.0000
  O   O25       1.0  0.69140  0.51890  0.39380  1.0000
  O   O26       1.0  0.30860  0.48110  0.60620  1.0000
  H   H13       1.0  0.64940  0.43540  0.38400  1.0000
  H   H14       1.0  0.35060  0.56460  0.61600  1.0000
  H   H15       1.0  0.72650  0.50520  0.35350  1.0000
  H   H16       1.0  0.27350  0.49480  0.64650  1.0000
  C   C27       1.0  0.68130  0.88390  0.17310  1.0000
  C   C28       1.0  0.31870  0.11610  0.82690  1.0000
  O   O27       1.0  0.24740  0.53890  0.44730  1.0000
  O   O28       1.0  0.75260  0.46110  0.55270  1.0000
  H   H17       1.0  0.15930  0.49410  0.43000  1.0000
  H   H18       1.0  0.84070  0.50590  0.57000  1.0000
  H   H19       1.0  0.27470  0.49050  0.47360  1.0000
  H   H20       1.0  0.72530  0.50950  0.52640  1.0000
  O   O29       1.0  0.31000  0.67270  0.30548  1.0000
  O   O30       1.0  0.69000  0.32730  0.69452  1.0000
  H   H21       1.0  0.34240  0.75670  0.31430  1.0000
  H   H22       1.0  0.65760  0.24330  0.68570  1.0000
  H   H23       1.0  0.22290  0.65840  0.30340  1.0000
  H   H24       1.0  0.77710  0.34160  0.69660  1.0000
  C   C29       1.0  0.84930  0.23480  0.42170  1.0000
  C   C30       1.0  0.15070  0.76520  0.57830  1.0000
  C   C31       1.0  0.94300  0.27300  0.49510  1.0000
  C   C32       1.0  0.05700  0.72700  0.50490  1.0000
  H   H25       1.0  0.02460  0.34830  0.50810  1.0000
  H   H26       1.0  0.97540  0.65170  0.49190  1.0000
  O   O31       1.0  0.64330  0.72580  0.32440  1.0000
  O   O32       1.0  0.35670  0.27420  0.67560  1.0000
  H   H27       1.0  0.63810  0.78900  0.30440  1.0000
  H   H28       1.0  0.36190  0.21100  0.69560  1.0000
  H   H29       1.0  0.69610  0.68750  0.30550  1.0000
  H   H30       1.0  0.30390  0.31250  0.69450  1.0000
  C   C33       1.0  0.91510  0.19860  0.54960  1.0000
  C   C34       1.0  0.08490  0.80140  0.45040  1.0000
  H   H31       1.0  0.97850  0.22230  0.59930  1.0000
  H   H32       1.0  0.02150  0.77770  0.40070  1.0000
  O   O33       1.0  0.38620  0.41930  0.27119  1.0000
  O   O34       1.0  0.61380  0.58070  0.72881  1.0000
  H   H33       1.0  0.42020  0.36260  0.25110  1.0000
  H   H34       1.0  0.57980  0.63740  0.74890  1.0000
  H   H35       1.0  0.32190  0.39750  0.22830  1.0000
  H   H36       1.0  0.67810  0.60250  0.77170  1.0000
  C   C35       1.0  0.79320  0.08970  0.52960  1.0000
  C   C36       1.0  0.20680  0.91030  0.47040  1.0000
  H   H37       1.0  0.77200  0.03910  0.56580  1.0000
  H   H38       1.0  0.22800  0.96090  0.43420  1.0000
  C   C37       1.0  0.70250  0.05610  0.45540  1.0000
  C   C38       1.0  0.29750  0.94390  0.54460  1.0000
  C   C39       1.0  0.86380  0.30910  0.35790  1.0000
  C   C40       1.0  0.13620  0.69090  0.64210  1.0000
  C   C41       1.0  0.56570  0.93850  0.42630  1.0000
  C   C42       1.0  0.43430  0.06150  0.57370  1.0000
