data_image0
_chemical_formula_structural       Co4P4O16C8O4C8H4C8H4C4H4C4H4O8H4O4C12H4C4H4C4H4C4H4
_chemical_formula_sum              "Co4 P4 O32 C56 H36"
_cell_length_a       20.174
_cell_length_b       9.7329
_cell_length_c       10.7371
_cell_angle_alpha    90
_cell_angle_beta     94.24
_cell_angle_gamma    90

_space_group_name_H-M_alt    "P 1"
_space_group_IT_number       1

loop_
  _space_group_symop_operation_xyz
  'x, y, z'

loop_
  _atom_site_type_symbol
  _atom_site_label
  _atom_site_symmetry_multiplicity
  _atom_site_fract_x
  _atom_site_fract_y
  _atom_site_fract_z
  _atom_site_occupancy
  Co  Co1       1.0  0.44973  0.32785  0.09701  1.0000
  Co  Co2       1.0  0.55027  0.82785  0.40299  1.0000
  Co  Co3       1.0  0.55027  0.67215  0.90299  1.0000
  Co  Co4       1.0  0.44973  0.17215  0.59701  1.0000
  P   P1        1.0  0.48621  0.38040  0.82638  1.0000
  P   P2        1.0  0.51379  0.88040  0.67362  1.0000
  P   P3        1.0  0.51379  0.61960  0.17362  1.0000
  P   P4        1.0  0.48621  0.11960  0.32638  1.0000
  O   O1        1.0  0.48130  0.28110  0.93460  1.0000
  O   O2        1.0  0.51870  0.78110  0.56540  1.0000
  O   O3        1.0  0.51870  0.71890  0.06540  1.0000
  O   O4        1.0  0.48130  0.21890  0.43460  1.0000
  O   O5        1.0  0.54220  0.48300  0.85050  1.0000
  O   O6        1.0  0.45780  0.98300  0.64950  1.0000
  O   O7        1.0  0.45780  0.51700  0.14950  1.0000
  O   O8        1.0  0.54220  0.01700  0.35050  1.0000
  O   O9        1.0  0.49860  0.30590  0.70530  1.0000
  O   O10       1.0  0.50140  0.80590  0.79470  1.0000
  O   O11       1.0  0.50140  0.69410  0.29470  1.0000
  O   O12       1.0  0.49860  0.19410  0.20530  1.0000
  O   O13       1.0  0.35460  0.29360  0.10210  1.0000
  O   O14       1.0  0.64540  0.79360  0.39790  1.0000
  O   O15       1.0  0.64540  0.70640  0.89790  1.0000
  O   O16       1.0  0.35460  0.20640  0.60210  1.0000
  C   C1        1.0  0.24060  0.34640  0.07430  1.0000
  C   C2        1.0  0.75940  0.84640  0.42570  1.0000
  C   C3        1.0  0.75940  0.65360  0.92570  1.0000
  C   C4        1.0  0.24060  0.15360  0.57430  1.0000
  C   C5        1.0  0.30960  0.35440  0.03270  1.0000
  C   C6        1.0  0.69040  0.85440  0.46730  1.0000
  C   C7        1.0  0.69040  0.64560  0.96730  1.0000
  C   C8        1.0  0.30960  0.14560  0.53270  1.0000
  O   O17       1.0  0.31940  0.41660  0.93500  1.0000
  O   O18       1.0  0.68060  0.91660  0.56500  1.0000
  O   O19       1.0  0.68060  0.58340  0.06500  1.0000
  O   O20       1.0  0.31940  0.08340  0.43500  1.0000
  C   C9        1.0  0.11310  0.34160  0.15720  1.0000
  C   C10       1.0  0.88690  0.84160  0.34280  1.0000
  C   C11       1.0  0.88690  0.65840  0.84280  1.0000
  C   C12       1.0  0.11310  0.15840  0.65720  1.0000
  C   C13       1.0  0.22690  0.26550  0.17620  1.0000
  C   C14       1.0  0.77310  0.76550  0.32380  1.0000
  C   C15       1.0  0.77310  0.73450  0.82380  1.0000
  C   C16       1.0  0.22690  0.23450  0.67620  1.0000
  H   H1        1.0  0.26040  0.21340  0.21720  1.0000
  H   H2        1.0  0.73960  0.71340  0.28280  1.0000
  H   H3        1.0  0.73960  0.78660  0.78280  1.0000
  H   H4        1.0  0.26040  0.28660  0.71720  1.0000
  C   C17       1.0  0.85150  0.34170  0.33520  1.0000
  C   C18       1.0  0.14850  0.84170  0.16480  1.0000
  C   C19       1.0  0.14850  0.65830  0.66480  1.0000
  C   C20       1.0  0.85150  0.15830  0.83520  1.0000
  C   C21       1.0  0.16330  0.26270  0.21660  1.0000
  C   C22       1.0  0.83670  0.76270  0.28340  1.0000
  C   C23       1.0  0.83670  0.73730  0.78340  1.0000
  C   C24       1.0  0.16330  0.23730  0.71660  1.0000
  H   H5        1.0  0.15420  0.20760  0.28390  1.0000
  H   H6        1.0  0.84580  0.70760  0.21610  1.0000
  H   H7        1.0  0.84580  0.79240  0.71610  1.0000
  H   H8        1.0  0.15420  0.29240  0.78390  1.0000
  C   C25       1.0  0.19040  0.42600  0.01310  1.0000
  C   C26       1.0  0.80960  0.92600  0.48690  1.0000
  C   C27       1.0  0.80960  0.57400  0.98690  1.0000
  C   C28       1.0  0.19040  0.07400  0.51310  1.0000
  H   H9        1.0  0.19910  0.47960  0.94450  1.0000
  H   H10       1.0  0.80090  0.97960  0.55550  1.0000
  H   H11       1.0  0.80090  0.52040  0.05550  1.0000
  H   H12       1.0  0.19910  0.02040  0.44450  1.0000
  C   C29       1.0  0.12680  0.42340  0.05680  1.0000
  C   C30       1.0  0.87320  0.92340  0.44320  1.0000
  C   C31       1.0  0.87320  0.57660  0.94320  1.0000
  C   C32       1.0  0.12680  0.07660  0.55680  1.0000
  H   H13       1.0  0.09320  0.47730  0.01790  1.0000
  H   H14       1.0  0.90680  0.97730  0.48210  1.0000
  H   H15       1.0  0.90680  0.52270  0.98210  1.0000
  H   H16       1.0  0.09320  0.02270  0.51790  1.0000
  O   O21       1.0  0.84470  0.40830  0.43520  1.0000
  O   O22       1.0  0.15530  0.90830  0.06480  1.0000
  O   O23       1.0  0.15530  0.59170  0.56480  1.0000
  O   O24       1.0  0.84470  0.09170  0.93520  1.0000
  O   O25       1.0  0.41960  0.46180  0.80550  1.0000
  O   O26       1.0  0.58040  0.96180  0.69450  1.0000
  O   O27       1.0  0.58040  0.53820  0.19450  1.0000
  O   O28       1.0  0.41960  0.03820  0.30550  1.0000
  H   H17       1.0  0.39330  0.43420  0.85450  1.0000
  H   H18       1.0  0.60670  0.93420  0.64550  1.0000
  H   H19       1.0  0.60670  0.56580  0.14550  1.0000
  H   H20       1.0  0.39330  0.06580  0.35450  1.0000
  O   O29       1.0  0.80540  0.29510  0.28260  1.0000
  O   O30       1.0  0.19460  0.79510  0.21740  1.0000
  O   O31       1.0  0.19460  0.70490  0.71740  1.0000
  O   O32       1.0  0.80540  0.20490  0.78260  1.0000
  C   C33       1.0  0.04580  0.33730  0.20370  1.0000
  C   C34       1.0  0.95420  0.83730  0.29630  1.0000
  C   C35       1.0  0.95420  0.66270  0.79630  1.0000
  C   C36       1.0  0.04580  0.16270  0.70370  1.0000
  C   C37       1.0  0.91820  0.34000  0.28970  1.0000
  C   C38       1.0  0.08180  0.84000  0.21030  1.0000
  C   C39       1.0  0.08180  0.66000  0.71030  1.0000
  C   C40       1.0  0.91820  0.16000  0.78970  1.0000
  C   C41       1.0  0.99120  0.31900  0.12470  1.0000
  C   C42       1.0  0.00880  0.81900  0.37530  1.0000
  C   C43       1.0  0.00880  0.68100  0.87530  1.0000
  C   C44       1.0  0.99120  0.18100  0.62470  1.0000
  H   H21       1.0  0.99630  0.30530  0.04020  1.0000
  H   H22       1.0  0.00370  0.80530  0.45980  1.0000
  H   H23       1.0  0.00370  0.69470  0.95980  1.0000
  H   H24       1.0  0.99630  0.19470  0.54020  1.0000
  C   C45       1.0  0.92700  0.32000  0.16690  1.0000
  C   C46       1.0  0.07300  0.82000  0.33310  1.0000
  C   C47       1.0  0.07300  0.68000  0.83310  1.0000
  C   C48       1.0  0.92700  0.18000  0.66690  1.0000
  H   H25       1.0  0.89040  0.30680  0.11040  1.0000
  H   H26       1.0  0.10960  0.80680  0.38960  1.0000
  H   H27       1.0  0.10960  0.69320  0.88960  1.0000
  H   H28       1.0  0.89040  0.19320  0.61040  1.0000
  C   C49       1.0  0.97040  0.34410  0.36800  1.0000
  C   C50       1.0  0.02960  0.84410  0.13200  1.0000
  C   C51       1.0  0.02960  0.65590  0.63200  1.0000
  C   C52       1.0  0.97040  0.15590  0.86800  1.0000
  H   H29       1.0  0.96540  0.34500  0.45350  1.0000
  H   H30       1.0  0.03460  0.84500  0.04650  1.0000
  H   H31       1.0  0.03460  0.65500  0.54650  1.0000
  H   H32       1.0  0.96540  0.15500  0.95350  1.0000
  C   C53       1.0  0.03840  0.34700  0.32100  1.0000
  C   C54       1.0  0.96160  0.84700  0.17900  1.0000
  C   C55       1.0  0.96160  0.65300  0.67900  1.0000
  C   C56       1.0  0.03840  0.15300  0.82100  1.0000
  H   H33       1.0  0.07550  0.35660  0.37760  1.0000
  H   H34       1.0  0.92450  0.85660  0.12240  1.0000
  H   H35       1.0  0.92450  0.64340  0.62240  1.0000
  H   H36       1.0  0.07550  0.14340  0.87760  1.0000
