data_image0
_chemical_formula_structural       Mo10Cu3P4Cu2O40N2C2N2C2O2N2C6H2C2H2C2H2C2H2C2H2C2H2C2H2C2H2C2H2C6H2C2H2C2H2C2H2C2H2C2H2C2H2C2H2C2H2C2H2C2H2C2H2N2C2H2C2H2C2H2C2H2C2H2
_chemical_formula_sum              "Mo10 Cu5 P4 O42 N8 C64 H52"
_cell_length_a       10.9346
_cell_length_b       11.3168
_cell_length_c       18.442
_cell_angle_alpha    79.969
_cell_angle_beta     89.303
_cell_angle_gamma    82.777

_space_group_name_H-M_alt    "P 1"
_space_group_IT_number       1

loop_
  _space_group_symop_operation_xyz
  'x, y, z'

loop_
  _atom_site_type_symbol
  _atom_site_label
  _atom_site_symmetry_multiplicity
  _atom_site_fract_x
  _atom_site_fract_y
  _atom_site_fract_z
  _atom_site_occupancy
  Mo  Mo1       1.0  0.19905  0.26804  0.17157  1.0000
  Mo  Mo2       1.0  0.80095  0.73196  0.82843  1.0000
  Mo  Mo3       1.0  0.24683  0.96771  0.11744  1.0000
  Mo  Mo4       1.0  0.75317  0.03229  0.88256  1.0000
  Mo  Mo5       1.0  0.44663  0.79605  0.24687  1.0000
  Mo  Mo6       1.0  0.55337  0.20395  0.75313  1.0000
  Mo  Mo7       1.0  0.45075  0.94605  0.39064  1.0000
  Mo  Mo8       1.0  0.54925  0.05395  0.60936  1.0000
  Mo  Mo9       1.0  0.28971  0.22118  0.34938  1.0000
  Mo  Mo10      1.0  0.71029  0.77882  0.65062  1.0000
  Cu  Cu1       1.0  0.50000  0.00000  0.00000  1.0000
  Cu  Cu2       1.0  0.16838  0.61374  0.06057  1.0000
  Cu  Cu3       1.0  0.83162  0.38626  0.93943  1.0000
  P   P1        1.0  0.46424  0.10186  0.21035  1.0000
  P   P2        1.0  0.53576  0.89814  0.78965  1.0000
  P   P3        1.0  0.18133  0.98214  0.29024  1.0000
  P   P4        1.0  0.81867  0.01786  0.70976  1.0000
  Cu  Cu4       1.0  0.57898  0.18921  0.42714  1.0000
  Cu  Cu5       1.0  0.42102  0.81079  0.57286  1.0000
  O   O1        1.0  0.19710  0.13280  0.11930  1.0000
  O   O2        1.0  0.80290  0.86720  0.88070  1.0000
  O   O3        1.0  0.20210  0.11550  0.27860  1.0000
  O   O4        1.0  0.79790  0.88450  0.72140  1.0000
  O   O5        1.0  0.39730  0.21280  0.16330  1.0000
  O   O6        1.0  0.60270  0.78720  0.83670  1.0000
  O   O7        1.0  0.13890  0.95270  0.21770  1.0000
  O   O8        1.0  0.86110  0.04730  0.78230  1.0000
  O   O9        1.0  0.29800  0.89770  0.32000  1.0000
  O   O10       1.0  0.70200  0.10230  0.68000  1.0000
  O   O11       1.0  0.41610  0.98780  0.19230  1.0000
  O   O12       1.0  0.58390  0.01220  0.80770  1.0000
  O   O13       1.0  0.45130  0.10800  0.29260  1.0000
  O   O14       1.0  0.54870  0.89200  0.70740  1.0000
  O   O15       1.0  0.31800  0.06170  0.40830  1.0000
  O   O16       1.0  0.68200  0.93830  0.59170  1.0000
  O   O17       1.0  0.26380  0.32430  0.25540  1.0000
  O   O18       1.0  0.73620  0.67570  0.74460  1.0000
  O   O19       1.0  0.35350  0.98400  0.04640  1.0000
  O   O20       1.0  0.64650  0.01600  0.95360  1.0000
  O   O21       1.0  0.04660  0.29130  0.19230  1.0000
  O   O22       1.0  0.95340  0.70870  0.80770  1.0000
  O   O23       1.0  0.56820  0.01190  0.42370  1.0000
  O   O24       1.0  0.43180  0.98810  0.57630  1.0000
  O   O25       1.0  0.40530  0.28540  0.38570  1.0000
  O   O26       1.0  0.59470  0.71460  0.61430  1.0000
  O   O27       1.0  0.12690  0.92480  0.07510  1.0000
  O   O28       1.0  0.87310  0.07520  0.92490  1.0000
  O   O29       1.0  0.15950  0.27160  0.39270  1.0000
  O   O30       1.0  0.84050  0.72840  0.60730  1.0000
  O   O31       1.0  0.21040  0.38850  0.10150  1.0000
  O   O32       1.0  0.78960  0.61150  0.89850  1.0000
  O   O33       1.0  0.42900  0.82660  0.46010  1.0000
  O   O34       1.0  0.57100  0.17340  0.53990  1.0000
  O   O35       1.0  0.57290  0.75590  0.19720  1.0000
  O   O36       1.0  0.42710  0.24410  0.80280  1.0000
  O   O37       1.0  0.53210  0.86080  0.31930  1.0000
  O   O38       1.0  0.46790  0.13920  0.68070  1.0000
  O   O39       1.0  0.31550  0.81210  0.17300  1.0000
  O   O40       1.0  0.68450  0.18790  0.82700  1.0000
  N   N1        1.0  0.34250  0.62070  0.05910  1.0000
  N   N2        1.0  0.65750  0.37930  0.94090  1.0000
  C   C1        1.0  0.62300  0.09750  0.18450  1.0000
  C   C2        1.0  0.37700  0.90250  0.81550  1.0000
  N   N3        1.0  0.99230  0.62680  0.06150  1.0000
  N   N4        1.0  0.00770  0.37320  0.93850  1.0000
  C   C3        1.0  0.05720  0.95630  0.35210  1.0000
  C   C4        1.0  0.94280  0.04370  0.64790  1.0000
  O   O41       1.0  0.41420  0.66380  0.29840  1.0000
  O   O42       1.0  0.58580  0.33620  0.70160  1.0000
  N   N5        1.0  0.68100  0.30560  0.37330  1.0000
  N   N6        1.0  0.31900  0.69440  0.62670  1.0000
  C   C5        1.0  0.59920  0.62440  0.06130  1.0000
  C   C6        1.0  0.40080  0.37560  0.93870  1.0000
  C   C7        1.0  0.73480  0.62710  0.06260  1.0000
  C   C8        1.0  0.26520  0.37290  0.93740  1.0000
  C   C9        1.0  0.39700  0.69930  0.01020  1.0000
  C   C10       1.0  0.60300  0.30070  0.98980  1.0000
  H   H1        1.0  0.34794  0.75394  0.97555  1.0000
  H   H2        1.0  0.65206  0.24606  0.02445  1.0000
  C   C11       1.0  0.78850  0.73250  0.04260  1.0000
  C   C12       1.0  0.21150  0.26750  0.95740  1.0000
  H   H3        1.0  0.73897  0.80600  0.02921  1.0000
  H   H4        1.0  0.26103  0.19400  0.97079  1.0000
  C   C13       1.0  0.52290  0.70240  0.00910  1.0000
  C   C14       1.0  0.47710  0.29760  0.99090  1.0000
  H   H5        1.0  0.55695  0.75694  0.97326  1.0000
  H   H6        1.0  0.44305  0.24306  0.02674  1.0000
  C   C15       1.0  0.81450  0.52140  0.08400  1.0000
  C   C16       1.0  0.18550  0.47860  0.91600  1.0000
  H   H7        1.0  0.78341  0.44823  0.09883  1.0000
  H   H8        1.0  0.21659  0.55177  0.90117  1.0000
  C   C17       1.0  0.54140  0.54250  0.11110  1.0000
  C   C18       1.0  0.45860  0.45750  0.88890  1.0000
  H   H9        1.0  0.58821  0.48712  0.14641  1.0000
  H   H10       1.0  0.41179  0.51288  0.85359  1.0000
  C   C19       1.0  0.68010  0.02320  0.13940  1.0000
  C   C20       1.0  0.31990  0.97680  0.86060  1.0000
  H   H11       1.0  0.63953  0.96163  0.12752  1.0000
  H   H12       1.0  0.36047  0.03837  0.87248  1.0000
  C   C21       1.0  0.93930  0.52560  0.08310  1.0000
  C   C22       1.0  0.06070  0.47440  0.91690  1.0000
  H   H13       1.0  0.99060  0.45376  0.09843  1.0000
  H   H14       1.0  0.00940  0.54624  0.90157  1.0000
  C   C23       1.0  0.68460  0.18910  0.20230  1.0000
  C   C24       1.0  0.31540  0.81090  0.79770  1.0000
  H   H15       1.0  0.64596  0.24207  0.23123  1.0000
  H   H16       1.0  0.35404  0.75793  0.76877  1.0000
  C   C25       1.0  0.91390  0.72870  0.04240  1.0000
  C   C26       1.0  0.08610  0.27130  0.95760  1.0000
  H   H17       1.0  0.94698  0.80090  0.02824  1.0000
  H   H18       1.0  0.05302  0.19910  0.97176  1.0000
  C   C27       1.0  0.83800  0.46680  0.30390  1.0000
  C   C28       1.0  0.16200  0.53320  0.69610  1.0000
  C   C29       1.0  0.92320  0.55590  0.27380  1.0000
  C   C30       1.0  0.07680  0.44410  0.72620  1.0000
  C   C31       1.0  0.88100  0.35540  0.34330  1.0000
  C   C32       1.0  0.11900  0.64460  0.65670  1.0000
  H   H19       1.0  0.96568  0.33248  0.34781  1.0000
  H   H20       1.0  0.03432  0.66752  0.65219  1.0000
  C   C33       1.0  0.79530  0.03720  0.11150  1.0000
  C   C34       1.0  0.20470  0.96280  0.88850  1.0000
  H   H21       1.0  0.83042  0.98790  0.07939  1.0000
  H   H22       1.0  0.16958  0.01210  0.92061  1.0000
  C   C35       1.0  0.85930  0.12590  0.13150  1.0000
  C   C36       1.0  0.14070  0.87410  0.86850  1.0000
  H   H23       1.0  0.93867  0.13404  0.11445  1.0000
  H   H24       1.0  0.06133  0.86596  0.88555  1.0000
  C   C37       1.0  0.93870  0.98210  0.32590  1.0000
  C   C38       1.0  0.06130  0.01790  0.67410  1.0000
  H   H25       1.0  0.92498  0.01569  0.27649  1.0000
  H   H26       1.0  0.07502  0.98431  0.72351  1.0000
  C   C39       1.0  0.80340  0.20190  0.17720  1.0000
  C   C40       1.0  0.19660  0.79810  0.82280  1.0000
  H   H27       1.0  0.84536  0.26127  0.19089  1.0000
  H   H28       1.0  0.15464  0.73873  0.80911  1.0000
  C   C41       1.0  0.80440  0.27840  0.37580  1.0000
  C   C42       1.0  0.19560  0.72160  0.62420  1.0000
  H   H29       1.0  0.83820  0.20312  0.40098  1.0000
  H   H30       1.0  0.16180  0.79688  0.59902  1.0000
  C   C43       1.0  0.63560  0.41300  0.33360  1.0000
  C   C44       1.0  0.36440  0.58700  0.66640  1.0000
  H   H31       1.0  0.55060  0.43343  0.32944  1.0000
  H   H32       1.0  0.44940  0.56657  0.67056  1.0000
  C   C45       1.0  0.71040  0.49350  0.29900  1.0000
  C   C46       1.0  0.28960  0.50650  0.70100  1.0000
  H   H33       1.0  0.67541  0.56682  0.27191  1.0000
  H   H34       1.0  0.32459  0.43318  0.72809  1.0000
  C   C47       1.0  0.04960  0.52030  0.27750  1.0000
  C   C48       1.0  0.95040  0.47970  0.72250  1.0000
  H   H35       1.0  0.07963  0.44102  0.29777  1.0000
  H   H36       1.0  0.92037  0.55898  0.70223  1.0000
  C   C49       1.0  0.88170  0.67710  0.24380  1.0000
  C   C50       1.0  0.11830  0.32290  0.75620  1.0000
  H   H37       1.0  0.79807  0.70532  0.23936  1.0000
  H   H38       1.0  0.20193  0.29468  0.76064  1.0000
  C   C51       1.0  0.83850  0.95990  0.37040  1.0000
  C   C52       1.0  0.16150  0.04010  0.62960  1.0000
  H   H39       1.0  0.75910  0.97919  0.35078  1.0000
  H   H40       1.0  0.24090  0.02081  0.64922  1.0000
  C   C53       1.0  0.85550  0.90990  0.44260  1.0000
  C   C54       1.0  0.14450  0.09010  0.55740  1.0000
  H   H41       1.0  0.78858  0.89555  0.47310  1.0000
  H   H42       1.0  0.21142  0.10445  0.52690  1.0000
  N   N7        1.0  0.09070  0.71580  0.22560  1.0000
  N   N8        1.0  0.90930  0.28420  0.77440  1.0000
  C   C55       1.0  0.97010  0.75300  0.22120  1.0000
  C   C56       1.0  0.02990  0.24700  0.77880  1.0000
  H   H43       1.0  0.94399  0.83363  0.20194  1.0000
  H   H44       1.0  0.05601  0.16637  0.79806  1.0000
  C   C57       1.0  0.13120  0.60110  0.25150  1.0000
  C   C58       1.0  0.86880  0.39890  0.74850  1.0000
  H   H45       1.0  0.21530  0.57481  0.25210  1.0000
  H   H46       1.0  0.78470  0.42519  0.74790  1.0000
  C   C59       1.0  0.41670  0.54300  0.10850  1.0000
  C   C60       1.0  0.58330  0.45700  0.89150  1.0000
  H   H47       1.0  0.38108  0.48694  0.14243  1.0000
  H   H48       1.0  0.61892  0.51306  0.85757  1.0000
  C   C61       1.0  0.97310  0.88150  0.46920  1.0000
  C   C62       1.0  0.02690  0.11850  0.53080  1.0000
  H   H49       1.0  0.98572  0.84455  0.51812  1.0000
  H   H50       1.0  0.01428  0.15545  0.48188  1.0000
  C   C63       1.0  0.07490  0.90580  0.42590  1.0000
  C   C64       1.0  0.92510  0.09420  0.57410  1.0000
  H   H51       1.0  0.15400  0.88839  0.44613  1.0000
  H   H52       1.0  0.84600  0.11161  0.55387  1.0000
