data_image0
_chemical_formula_structural       O12C8H2C2H2C2H2C2H2C2H2Ag2S4N2C2N2C2H2C2H2C2H2C2H2C2H2C2H2C2H2
_chemical_formula_sum              "O12 C32 H24 Ag2 S4 N4"
_cell_length_a       8.2505
_cell_length_b       10.2487
_cell_length_c       16.795
_cell_angle_alpha    86.545
_cell_angle_beta     86.59
_cell_angle_gamma    75.057

_space_group_name_H-M_alt    "P 1"
_space_group_IT_number       1

loop_
  _space_group_symop_operation_xyz
  'x, y, z'

loop_
  _atom_site_type_symbol
  _atom_site_label
  _atom_site_symmetry_multiplicity
  _atom_site_fract_x
  _atom_site_fract_y
  _atom_site_fract_z
  _atom_site_occupancy
  O   O1        1.0  0.94850  0.39040  0.23631  1.0000
  O   O2        1.0  0.05150  0.60960  0.76369  1.0000
  O   O3        1.0  0.00830  0.52950  0.12272  1.0000
  O   O4        1.0  0.99170  0.47050  0.87728  1.0000
  O   O5        1.0  0.48540  0.02130  0.23031  1.0000
  O   O6        1.0  0.51460  0.97870  0.76969  1.0000
  O   O7        1.0  0.95110  0.62300  0.25275  1.0000
  O   O8        1.0  0.04890  0.37700  0.74725  1.0000
  O   O9        1.0  0.56380  0.07700  0.35716  1.0000
  O   O10       1.0  0.43620  0.92300  0.64284  1.0000
  O   O11       1.0  0.75050  0.07780  0.23997  1.0000
  O   O12       1.0  0.24950  0.92220  0.76003  1.0000
  C   C1        1.0  0.48170  0.27010  0.24959  1.0000
  C   C2        1.0  0.51830  0.72990  0.75041  1.0000
  C   C3        1.0  0.38010  0.86420  0.02003  1.0000
  C   C4        1.0  0.61990  0.13580  0.97997  1.0000
  C   C5        1.0  0.23530  0.44830  0.22611  1.0000
  C   C6        1.0  0.76470  0.55170  0.77389  1.0000
  C   C7        1.0  0.48930  0.82530  0.08221  1.0000
  C   C8        1.0  0.51070  0.17470  0.91779  1.0000
  H   H1        1.0  0.47760  0.87940  0.12580  1.0000
  H   H2        1.0  0.52240  0.12060  0.87420  1.0000
  C   C9        1.0  0.31010  0.31190  0.23928  1.0000
  C   C10       1.0  0.68990  0.68810  0.76072  1.0000
  H   H3        1.0  0.24620  0.24900  0.24120  1.0000
  H   H4        1.0  0.75380  0.75100  0.75880  1.0000
  C   C11       1.0  0.32990  0.54360  0.22417  1.0000
  C   C12       1.0  0.67010  0.45640  0.77583  1.0000
  H   H5        1.0  0.27910  0.63520  0.21580  1.0000
  H   H6        1.0  0.72090  0.36480  0.78420  1.0000
  C   C13       1.0  0.57730  0.36420  0.24680  1.0000
  C   C14       1.0  0.42270  0.63580  0.75320  1.0000
  H   H7        1.0  0.69260  0.33560  0.25290  1.0000
  H   H8        1.0  0.30740  0.66440  0.74710  1.0000
  C   C15       1.0  0.50120  0.49900  0.23504  1.0000
  C   C16       1.0  0.49880  0.50100  0.76496  1.0000
  H   H9        1.0  0.56530  0.56160  0.23430  1.0000
  H   H10       1.0  0.43470  0.43840  0.76570  1.0000
  Ag  Ag1       1.0  0.83478  0.43889  0.01887  1.0000
  Ag  Ag2       1.0  0.16522  0.56111  0.98113  1.0000
  S   S1        1.0  0.01758  0.50227  0.20835  1.0000
  S   S2        1.0  0.98242  0.49773  0.79165  1.0000
  S   S3        1.0  0.57890  0.09644  0.27142  1.0000
  S   S4        1.0  0.42110  0.90356  0.72858  1.0000
  N   N1        1.0  0.00030  0.23810  0.02055  1.0000
  N   N2        1.0  0.99970  0.76190  0.97945  1.0000
  C   C17       1.0  0.24680  0.99140  0.02027  1.0000
  C   C18       1.0  0.75320  0.00860  0.97973  1.0000
  N   N3        1.0  0.63780  0.62300  0.01916  1.0000
  N   N4        1.0  0.36220  0.37700  0.98084  1.0000
  C   C19       1.0  0.17070  0.05180  0.95018  1.0000
  C   C20       1.0  0.82930  0.94820  0.04982  1.0000
  H   H11       1.0  0.20160  0.01040  0.90190  1.0000
  H   H12       1.0  0.79840  0.98960  0.09810  1.0000
  C   C21       1.0  0.19080  0.05880  0.09027  1.0000
  C   C22       1.0  0.80920  0.94120  0.90973  1.0000
  H   H13       1.0  0.23590  0.02210  0.13860  1.0000
  H   H14       1.0  0.76410  0.97790  0.86140  1.0000
  C   C23       1.0  0.05040  0.17230  0.95310  1.0000
  C   C24       1.0  0.94960  0.82770  0.04690  1.0000
  H   H15       1.0  0.00100  0.21040  0.90590  1.0000
  H   H16       1.0  0.99900  0.78960  0.09410  1.0000
  C   C25       1.0  0.61460  0.70700  0.07958  1.0000
  C   C26       1.0  0.38540  0.29300  0.92042  1.0000
  H   H17       1.0  0.68670  0.68420  0.12160  1.0000
  H   H18       1.0  0.31330  0.31580  0.87840  1.0000
  C   C27       1.0  0.06940  0.17930  0.08845  1.0000
  C   C28       1.0  0.93060  0.82070  0.91155  1.0000
  H   H19       1.0  0.03370  0.22180  0.13610  1.0000
  H   H20       1.0  0.96630  0.77820  0.86390  1.0000
  C   C29       1.0  0.40580  0.77710  0.95647  1.0000
  C   C30       1.0  0.59420  0.22290  0.04353  1.0000
  H   H21       1.0  0.33750  0.79880  0.91300  1.0000
  H   H22       1.0  0.66250  0.20120  0.08700  1.0000
  C   C31       1.0  0.53230  0.65960  0.95873  1.0000
  C   C32       1.0  0.46770  0.34040  0.04127  1.0000
  H   H23       1.0  0.54570  0.60260  0.91650  1.0000
  H   H24       1.0  0.45430  0.39740  0.08350  1.0000
