data_image0
_chemical_formula_structural       In4O40C48H16
_chemical_formula_sum              "In4 O40 C48 H16"
_cell_length_a       9.746
_cell_length_b       9.746
_cell_length_c       31.081
_cell_angle_alpha    90
_cell_angle_beta     90
_cell_angle_gamma    90

_space_group_name_H-M_alt    "P 1"
_space_group_IT_number       1

loop_
  _space_group_symop_operation_xyz
  'x, y, z'

loop_
  _atom_site_type_symbol
  _atom_site_label
  _atom_site_symmetry_multiplicity
  _atom_site_fract_x
  _atom_site_fract_y
  _atom_site_fract_z
  _atom_site_occupancy
  In  In1       1.0  0.00000  0.75000  0.62500  1.0000
  In  In2       1.0  0.50000  0.25000  0.12500  1.0000
  In  In3       1.0  0.50000  0.75000  0.87500  1.0000
  In  In4       1.0  0.00000  0.25000  0.37500  1.0000
  O   O1        1.0  0.50000  0.75000  0.64870  1.0000
  O   O2        1.0  0.00000  0.25000  0.14870  1.0000
  O   O3        1.0  0.50000  0.25000  0.89870  1.0000
  O   O4        1.0  0.00000  0.75000  0.39870  1.0000
  O   O5        1.0  0.00000  0.75000  0.85130  1.0000
  O   O6        1.0  0.50000  0.25000  0.35130  1.0000
  O   O7        1.0  0.00000  0.25000  0.60130  1.0000
  O   O8        1.0  0.50000  0.75000  0.10130  1.0000
  O   O9        1.0  0.23550  0.75000  0.61545  1.0000
  O   O10       1.0  0.26450  0.25000  0.11545  1.0000
  O   O11       1.0  0.50000  0.98550  0.86545  1.0000
  O   O12       1.0  0.00000  0.01450  0.36545  1.0000
  O   O13       1.0  0.26450  0.75000  0.88455  1.0000
  O   O14       1.0  0.23550  0.25000  0.38455  1.0000
  O   O15       1.0  0.00000  0.98550  0.63455  1.0000
  O   O16       1.0  0.50000  0.01450  0.13455  1.0000
  O   O17       1.0  0.73550  0.25000  0.11545  1.0000
  O   O18       1.0  0.76450  0.75000  0.61545  1.0000
  O   O19       1.0  0.00000  0.48550  0.36545  1.0000
  O   O20       1.0  0.50000  0.51450  0.86545  1.0000
  O   O21       1.0  0.76450  0.25000  0.38455  1.0000
  O   O22       1.0  0.73550  0.75000  0.88455  1.0000
  O   O23       1.0  0.50000  0.48550  0.13455  1.0000
  O   O24       1.0  0.00000  0.51450  0.63455  1.0000
  O   O25       1.0  0.14920  0.75000  0.68076  1.0000
  O   O26       1.0  0.35080  0.25000  0.18076  1.0000
  O   O27       1.0  0.50000  0.89920  0.93076  1.0000
  O   O28       1.0  0.00000  0.10080  0.43076  1.0000
  O   O29       1.0  0.35080  0.75000  0.81924  1.0000
  O   O30       1.0  0.14920  0.25000  0.31924  1.0000
  O   O31       1.0  0.00000  0.89920  0.56924  1.0000
  O   O32       1.0  0.50000  0.10080  0.06924  1.0000
  O   O33       1.0  0.64920  0.25000  0.18076  1.0000
  O   O34       1.0  0.85080  0.75000  0.68076  1.0000
  O   O35       1.0  0.00000  0.39920  0.43076  1.0000
  O   O36       1.0  0.50000  0.60080  0.93076  1.0000
  O   O37       1.0  0.85080  0.25000  0.31924  1.0000
  O   O38       1.0  0.64920  0.75000  0.81924  1.0000
  O   O39       1.0  0.50000  0.39920  0.06924  1.0000
  O   O40       1.0  0.00000  0.60080  0.56924  1.0000
  C   C1        1.0  0.25140  0.75000  0.65582  1.0000
  C   C2        1.0  0.24860  0.25000  0.15582  1.0000
  C   C3        1.0  0.50000  0.00140  0.90582  1.0000
  C   C4        1.0  0.00000  0.99860  0.40582  1.0000
  C   C5        1.0  0.24860  0.75000  0.84418  1.0000
  C   C6        1.0  0.25140  0.25000  0.34418  1.0000
  C   C7        1.0  0.00000  0.00140  0.59418  1.0000
  C   C8        1.0  0.50000  0.99860  0.09418  1.0000
  C   C9        1.0  0.75140  0.25000  0.15582  1.0000
  C   C10       1.0  0.74860  0.75000  0.65582  1.0000
  C   C11       1.0  0.00000  0.50140  0.40582  1.0000
  C   C12       1.0  0.50000  0.49860  0.90582  1.0000
  C   C13       1.0  0.74860  0.25000  0.34418  1.0000
  C   C14       1.0  0.75140  0.75000  0.84418  1.0000
  C   C15       1.0  0.50000  0.50140  0.09418  1.0000
  C   C16       1.0  0.00000  0.49860  0.59418  1.0000
  C   C17       1.0  0.38780  0.75000  0.67566  1.0000
  C   C18       1.0  0.11220  0.25000  0.17566  1.0000
  C   C19       1.0  0.50000  0.13780  0.92566  1.0000
  C   C20       1.0  0.00000  0.86220  0.42566  1.0000
  C   C21       1.0  0.11220  0.75000  0.82434  1.0000
  C   C22       1.0  0.38780  0.25000  0.32434  1.0000
  C   C23       1.0  0.00000  0.13780  0.57434  1.0000
  C   C24       1.0  0.50000  0.86220  0.07434  1.0000
  C   C25       1.0  0.88780  0.25000  0.17566  1.0000
  C   C26       1.0  0.61220  0.75000  0.67566  1.0000
  C   C27       1.0  0.00000  0.63780  0.42566  1.0000
  C   C28       1.0  0.50000  0.36220  0.92566  1.0000
  C   C29       1.0  0.61220  0.25000  0.32434  1.0000
  C   C30       1.0  0.88780  0.75000  0.82434  1.0000
  C   C31       1.0  0.50000  0.63780  0.07434  1.0000
  C   C32       1.0  0.00000  0.36220  0.57434  1.0000
  C   C33       1.0  0.42650  0.75000  0.71710  1.0000
  C   C34       1.0  0.07350  0.25000  0.21710  1.0000
  C   C35       1.0  0.50000  0.17650  0.96710  1.0000
  C   C36       1.0  0.00000  0.82350  0.46710  1.0000
  C   C37       1.0  0.07350  0.75000  0.78290  1.0000
  C   C38       1.0  0.42650  0.25000  0.28290  1.0000
  C   C39       1.0  0.00000  0.17650  0.53290  1.0000
  C   C40       1.0  0.50000  0.82350  0.03290  1.0000
  C   C41       1.0  0.92650  0.25000  0.21710  1.0000
  C   C42       1.0  0.57350  0.75000  0.71710  1.0000
  C   C43       1.0  0.00000  0.67650  0.46710  1.0000
  C   C44       1.0  0.50000  0.32350  0.96710  1.0000
  C   C45       1.0  0.57350  0.25000  0.28290  1.0000
  C   C46       1.0  0.92650  0.75000  0.78290  1.0000
  C   C47       1.0  0.50000  0.67650  0.03290  1.0000
  C   C48       1.0  0.00000  0.32350  0.53290  1.0000
  H   H1        1.0  0.36920  0.75000  0.74110  1.0000
  H   H2        1.0  0.13080  0.25000  0.24110  1.0000
  H   H3        1.0  0.50000  0.11920  0.99110  1.0000
  H   H4        1.0  0.00000  0.88080  0.49110  1.0000
  H   H5        1.0  0.13080  0.75000  0.75890  1.0000
  H   H6        1.0  0.36920  0.25000  0.25890  1.0000
  H   H7        1.0  0.00000  0.11920  0.50890  1.0000
  H   H8        1.0  0.50000  0.88080  0.00890  1.0000
  H   H9        1.0  0.86920  0.25000  0.24110  1.0000
  H   H10       1.0  0.63080  0.75000  0.74110  1.0000
  H   H11       1.0  0.00000  0.61920  0.49110  1.0000
  H   H12       1.0  0.50000  0.38080  0.99110  1.0000
  H   H13       1.0  0.63080  0.25000  0.25890  1.0000
  H   H14       1.0  0.86920  0.75000  0.75890  1.0000
  H   H15       1.0  0.50000  0.61920  0.00890  1.0000
  H   H16       1.0  0.00000  0.38080  0.50890  1.0000
