data_image0
_chemical_formula_structural       La2O2C8H2C2H2C2H2C2H2C4O4C2O6C8H2C2H2C2H2C2H2C4O4C2O6H4O2H4
_chemical_formula_sum              "La2 O24 C40 H24"
_cell_length_a       7.9491
_cell_length_b       12.8013
_cell_length_c       13.5316
_cell_angle_alpha    97.5992
_cell_angle_beta     105.34
_cell_angle_gamma    103.708

_space_group_name_H-M_alt    "P 1"
_space_group_IT_number       1

loop_
  _space_group_symop_operation_xyz
  'x, y, z'

loop_
  _atom_site_type_symbol
  _atom_site_label
  _atom_site_symmetry_multiplicity
  _atom_site_fract_x
  _atom_site_fract_y
  _atom_site_fract_z
  _atom_site_occupancy
  La  La1       1.0  0.26784  0.05330  0.95544  1.0000
  La  La2       1.0  0.73216  0.94670  0.04456  1.0000
  O   O1        1.0  0.59670  0.10550  0.38530  1.0000
  O   O2        1.0  0.40330  0.89450  0.61470  1.0000
  C   C1        1.0  0.48370  0.06570  0.28230  1.0000
  C   C2        1.0  0.51630  0.93430  0.71770  1.0000
  C   C3        1.0  0.30780  0.05310  0.27810  1.0000
  C   C4        1.0  0.69220  0.94690  0.72190  1.0000
  C   C5        1.0  0.29920  0.08320  0.38040  1.0000
  C   C6        1.0  0.70080  0.91680  0.61960  1.0000
  C   C7        1.0  0.17600  0.09520  0.43400  1.0000
  C   C8        1.0  0.82400  0.90480  0.56600  1.0000
  H   H1        1.0  0.05010  0.07790  0.39680  1.0000
  H   H2        1.0  0.94990  0.92210  0.60320  1.0000
  C   C9        1.0  0.23750  0.13300  0.54330  1.0000
  C   C10       1.0  0.76250  0.86700  0.45670  1.0000
  H   H3        1.0  0.15220  0.13990  0.57970  1.0000
  H   H4        1.0  0.84780  0.86010  0.42030  1.0000
  C   C11       1.0  0.42220  0.16040  0.59900  1.0000
  C   C12       1.0  0.57780  0.83960  0.40100  1.0000
  H   H5        1.0  0.45940  0.18450  0.67300  1.0000
  H   H6        1.0  0.54060  0.81550  0.32700  1.0000
  C   C13       1.0  0.54270  0.15430  0.55390  1.0000
  C   C14       1.0  0.45730  0.84570  0.44610  1.0000
  H   H7        1.0  0.66830  0.17460  0.59260  1.0000
  H   H8        1.0  0.33170  0.82540  0.40740  1.0000
  C   C15       1.0  0.48220  0.11630  0.44510  1.0000
  C   C16       1.0  0.51780  0.88370  0.55490  1.0000
  C   C17       1.0  0.57220  0.04080  0.20240  1.0000
  C   C18       1.0  0.42780  0.95920  0.79760  1.0000
  O   O3        1.0  0.47130  0.99670  0.10790  1.0000
  O   O4        1.0  0.52870  0.00330  0.89210  1.0000
  O   O5        1.0  0.74100  0.06000  0.22870  1.0000
  O   O6        1.0  0.25900  0.94000  0.77130  1.0000
  C   C19       1.0  0.13650  0.01090  0.18810  1.0000
  C   C20       1.0  0.86350  0.98910  0.81190  1.0000
  O   O7        1.0  0.00040  0.95420  0.20630  1.0000
  O   O8        1.0  0.99960  0.04580  0.79370  1.0000
  O   O9        1.0  0.12690  0.03560  0.10000  1.0000
  O   O10       1.0  0.87310  0.96440  0.90000  1.0000
  O   O11       1.0  0.00850  0.47730  0.86110  1.0000
  O   O12       1.0  0.99150  0.52270  0.13890  1.0000
  C   C21       1.0  0.14940  0.56770  0.92460  1.0000
  C   C22       1.0  0.85060  0.43230  0.07540  1.0000
  C   C23       1.0  0.14250  0.66120  0.88930  1.0000
  C   C24       1.0  0.85750  0.33880  0.11070  1.0000
  C   C25       1.0  0.98540  0.62980  0.79510  1.0000
  C   C26       1.0  0.01460  0.37020  0.20490  1.0000
  C   C27       1.0  0.90840  0.68460  0.72010  1.0000
  C   C28       1.0  0.09160  0.31540  0.27990  1.0000
  H   H9        1.0  0.95770  0.76120  0.72590  1.0000
  H   H10       1.0  0.04230  0.23880  0.27410  1.0000
  C   C29       1.0  0.75860  0.62350  0.63730  1.0000
  C   C30       1.0  0.24140  0.37650  0.36270  1.0000
  H   H11       1.0  0.70260  0.65910  0.58610  1.0000
  H   H12       1.0  0.29740  0.34090  0.41390  1.0000
  C   C31       1.0  0.68680  0.50940  0.62720  1.0000
  C   C32       1.0  0.31320  0.49060  0.37280  1.0000
  H   H13       1.0  0.58470  0.46960  0.56870  1.0000
  H   H14       1.0  0.41530  0.53040  0.43130  1.0000
  C   C33       1.0  0.76110  0.45430  0.69990  1.0000
  C   C34       1.0  0.23890  0.54570  0.30010  1.0000
  H   H15       1.0  0.71230  0.37770  0.69400  1.0000
  H   H16       1.0  0.28770  0.62230  0.30600  1.0000
  C   C35       1.0  0.91160  0.51710  0.78250  1.0000
  C   C36       1.0  0.08840  0.48290  0.21750  1.0000
  C   C37       1.0  0.26180  0.77630  0.93170  1.0000
  C   C38       1.0  0.73820  0.22370  0.06830  1.0000
  O   O13       1.0  0.17790  0.84790  0.94210  1.0000
  O   O14       1.0  0.82210  0.15210  0.05790  1.0000
  O   O15       1.0  0.43140  0.79520  0.95090  1.0000
  O   O16       1.0  0.56860  0.20480  0.04910  1.0000
  C   C39       1.0  0.27450  0.54330  0.01740  1.0000
  C   C40       1.0  0.72550  0.45670  0.98260  1.0000
  O   O17       1.0  0.37020  0.62300  0.08950  1.0000
  O   O18       1.0  0.62980  0.37700  0.91050  1.0000
  O   O19       1.0  0.27370  0.44480  0.01570  1.0000
  O   O20       1.0  0.72630  0.55520  0.98430  1.0000
  O   O21       1.0  0.15910  0.21860  0.01620  1.0000
  O   O22       1.0  0.84090  0.78140  0.98380  1.0000
  H   H17       1.0  0.06030  0.21330  0.03680  1.0000
  H   H18       1.0  0.93970  0.78670  0.96320  1.0000
  H   H19       1.0  0.19530  0.29020  0.01550  1.0000
  H   H20       1.0  0.80470  0.70980  0.98450  1.0000
  O   O23       1.0  0.34760  0.19200  0.84720  1.0000
  O   O24       1.0  0.65240  0.80800  0.15280  1.0000
  H   H21       1.0  0.44390  0.25490  0.86850  1.0000
  H   H22       1.0  0.55610  0.74510  0.13150  1.0000
  H   H23       1.0  0.26170  0.20370  0.79900  1.0000
  H   H24       1.0  0.73830  0.79630  0.20100  1.0000
