data_image0
_chemical_formula_structural       Gd4O4C16H4C4H4C4H4C4H4C8O8C4O12C16H4C4H4C4H4C4H4C8O8C4O12H8
_chemical_formula_sum              "Gd4 O44 C80 H40"
_cell_length_a       12.9328
_cell_length_b       23.7681
_cell_length_c       8.4679
_cell_angle_alpha    90
_cell_angle_beta     90.343
_cell_angle_gamma    90

_space_group_name_H-M_alt    "P 1"
_space_group_IT_number       1

loop_
  _space_group_symop_operation_xyz
  'x, y, z'

loop_
  _atom_site_type_symbol
  _atom_site_label
  _atom_site_symmetry_multiplicity
  _atom_site_fract_x
  _atom_site_fract_y
  _atom_site_fract_z
  _atom_site_occupancy
  Gd  Gd1       1.0  0.90571  0.01757  0.80381  1.0000
  Gd  Gd2       1.0  0.09429  0.51757  0.69619  1.0000
  Gd  Gd3       1.0  0.09429  0.98243  0.19619  1.0000
  Gd  Gd4       1.0  0.90571  0.48243  0.30381  1.0000
  O   O1        1.0  0.82020  0.19820  0.51120  1.0000
  O   O2        1.0  0.17980  0.69820  0.98880  1.0000
  O   O3        1.0  0.17980  0.80180  0.48880  1.0000
  O   O4        1.0  0.82020  0.30180  0.01120  1.0000
  C   C1        1.0  0.82570  0.14090  0.53380  1.0000
  C   C2        1.0  0.17430  0.64090  0.96620  1.0000
  C   C3        1.0  0.17430  0.85910  0.46620  1.0000
  C   C4        1.0  0.82570  0.35910  0.03380  1.0000
  C   C5        1.0  0.89830  0.11560  0.44130  1.0000
  C   C6        1.0  0.10170  0.61560  0.05870  1.0000
  C   C7        1.0  0.10170  0.88440  0.55870  1.0000
  C   C8        1.0  0.89830  0.38440  0.94130  1.0000
  C   C9        1.0  0.94580  0.16210  0.35000  1.0000
  C   C10       1.0  0.05420  0.66210  0.15000  1.0000
  C   C11       1.0  0.05420  0.83790  0.65000  1.0000
  C   C12       1.0  0.94580  0.33790  0.85000  1.0000
  C   C13       1.0  0.02580  0.16640  0.24460  1.0000
  C   C14       1.0  0.97420  0.66640  0.25540  1.0000
  C   C15       1.0  0.97420  0.83360  0.75540  1.0000
  C   C16       1.0  0.02580  0.33360  0.74460  1.0000
  H   H1        1.0  0.06130  0.13410  0.20730  1.0000
  H   H2        1.0  0.93870  0.63410  0.29270  1.0000
  H   H3        1.0  0.93870  0.86590  0.79270  1.0000
  H   H4        1.0  0.06130  0.36590  0.70730  1.0000
  C   C17       1.0  0.05260  0.22040  0.19480  1.0000
  C   C18       1.0  0.94740  0.72040  0.30520  1.0000
  C   C19       1.0  0.94740  0.77960  0.80520  1.0000
  C   C20       1.0  0.05260  0.27960  0.69480  1.0000
  H   H5        1.0  0.10700  0.22490  0.12100  1.0000
  H   H6        1.0  0.89300  0.72490  0.37900  1.0000
  H   H7        1.0  0.89300  0.77510  0.87900  1.0000
  H   H8        1.0  0.10700  0.27510  0.62100  1.0000
  C   C21       1.0  0.00210  0.26750  0.25000  1.0000
  C   C22       1.0  0.99790  0.76750  0.25000  1.0000
  C   C23       1.0  0.99790  0.73250  0.75000  1.0000
  C   C24       1.0  0.00210  0.23250  0.75000  1.0000
  H   H9        1.0  0.02440  0.30360  0.21590  1.0000
  H   H10       1.0  0.97560  0.80360  0.28410  1.0000
  H   H11       1.0  0.97560  0.69640  0.78410  1.0000
  H   H12       1.0  0.02440  0.19640  0.71590  1.0000
  C   C25       1.0  0.92170  0.26410  0.35130  1.0000
  C   C26       1.0  0.07830  0.76410  0.14870  1.0000
  C   C27       1.0  0.07830  0.73590  0.64870  1.0000
  C   C28       1.0  0.92170  0.23590  0.85130  1.0000
  H   H13       1.0  0.88580  0.29650  0.38660  1.0000
  H   H14       1.0  0.11420  0.79650  0.11340  1.0000
  H   H15       1.0  0.11420  0.70350  0.61340  1.0000
  H   H16       1.0  0.88580  0.20350  0.88660  1.0000
  C   C29       1.0  0.89450  0.20980  0.40130  1.0000
  C   C30       1.0  0.10550  0.70980  0.09870  1.0000
  C   C31       1.0  0.10550  0.79020  0.59870  1.0000
  C   C32       1.0  0.89450  0.29020  0.90130  1.0000
  C   C33       1.0  0.74870  0.12160  0.65340  1.0000
  C   C34       1.0  0.25130  0.62160  0.84660  1.0000
  C   C35       1.0  0.25130  0.87840  0.34660  1.0000
  C   C36       1.0  0.74870  0.37840  0.15340  1.0000
  O   O5        1.0  0.76960  0.07580  0.72620  1.0000
  O   O6        1.0  0.23040  0.57580  0.77380  1.0000
  O   O7        1.0  0.23040  0.92420  0.27380  1.0000
  O   O8        1.0  0.76960  0.42420  0.22620  1.0000
  O   O9        1.0  0.67370  0.15140  0.68220  1.0000
  O   O10       1.0  0.32630  0.65140  0.81780  1.0000
  O   O11       1.0  0.32630  0.84860  0.31780  1.0000
  O   O12       1.0  0.67370  0.34860  0.18220  1.0000
  C   C37       1.0  0.92150  0.05510  0.41880  1.0000
  C   C38       1.0  0.07850  0.55510  0.08120  1.0000
  C   C39       1.0  0.07850  0.94490  0.58120  1.0000
  C   C40       1.0  0.92150  0.44490  0.91880  1.0000
  O   O13       1.0  0.96340  0.04280  0.28730  1.0000
  O   O14       1.0  0.03660  0.54280  0.21270  1.0000
  O   O15       1.0  0.03660  0.95720  0.71270  1.0000
  O   O16       1.0  0.96340  0.45720  0.78730  1.0000
  O   O17       1.0  0.89940  0.02000  0.52480  1.0000
  O   O18       1.0  0.10060  0.52000  0.97520  1.0000
  O   O19       1.0  0.10060  0.98000  0.47520  1.0000
  O   O20       1.0  0.89940  0.48000  0.02480  1.0000
  O   O21       1.0  0.64960  0.85640  0.05330  1.0000
  O   O22       1.0  0.35040  0.35640  0.44670  1.0000
  O   O23       1.0  0.35040  0.14360  0.94670  1.0000
  O   O24       1.0  0.64960  0.64360  0.55330  1.0000
  C   C41       1.0  0.73220  0.88920  0.00780  1.0000
  C   C42       1.0  0.26780  0.38920  0.49220  1.0000
  C   C43       1.0  0.26780  0.11080  0.99220  1.0000
  C   C44       1.0  0.73220  0.61080  0.50780  1.0000
  C   C45       1.0  0.80580  0.89170  0.12400  1.0000
  C   C46       1.0  0.19420  0.39170  0.37600  1.0000
  C   C47       1.0  0.19420  0.10830  0.87600  1.0000
  C   C48       1.0  0.80580  0.60830  0.62400  1.0000
  C   C49       1.0  0.76880  0.85860  0.25440  1.0000
  C   C50       1.0  0.23120  0.35860  0.24560  1.0000
  C   C51       1.0  0.23120  0.14140  0.74560  1.0000
  C   C52       1.0  0.76880  0.64140  0.75440  1.0000
  C   C53       1.0  0.79960  0.84470  0.40940  1.0000
  C   C54       1.0  0.20040  0.34470  0.09060  1.0000
  C   C55       1.0  0.20040  0.15530  0.59060  1.0000
  C   C56       1.0  0.79960  0.65530  0.90940  1.0000
  H   H17       1.0  0.86270  0.85850  0.45240  1.0000
  H   H18       1.0  0.13730  0.35850  0.04760  1.0000
  H   H19       1.0  0.13730  0.14150  0.54760  1.0000
  H   H20       1.0  0.86270  0.64150  0.95240  1.0000
  C   C57       1.0  0.73630  0.81080  0.49660  1.0000
  C   C58       1.0  0.26370  0.31080  0.00340  1.0000
  C   C59       1.0  0.26370  0.18920  0.50340  1.0000
  C   C60       1.0  0.73630  0.68920  0.99660  1.0000
  H   H21       1.0  0.75660  0.80060  0.60070  1.0000
  H   H22       1.0  0.24340  0.30060  0.89930  1.0000
  H   H23       1.0  0.24340  0.19940  0.39930  1.0000
  H   H24       1.0  0.75660  0.69940  0.10070  1.0000
  C   C61       1.0  0.64180  0.79050  0.43600  1.0000
  C   C62       1.0  0.35820  0.29050  0.06400  1.0000
  C   C63       1.0  0.35820  0.20950  0.56400  1.0000
  C   C64       1.0  0.64180  0.70950  0.93600  1.0000
  H   H25       1.0  0.60210  0.76610  0.50070  1.0000
  H   H26       1.0  0.39790  0.26610  0.99930  1.0000
  H   H27       1.0  0.39790  0.23390  0.49930  1.0000
  H   H28       1.0  0.60210  0.73390  0.00070  1.0000
  C   C65       1.0  0.60400  0.80370  0.29100  1.0000
  C   C66       1.0  0.39600  0.30370  0.20900  1.0000
  C   C67       1.0  0.39600  0.19630  0.70900  1.0000
  C   C68       1.0  0.60400  0.69630  0.79100  1.0000
  H   H29       1.0  0.53890  0.79120  0.25200  1.0000
  H   H30       1.0  0.46110  0.29120  0.24800  1.0000
  H   H31       1.0  0.46110  0.20880  0.74800  1.0000
  H   H32       1.0  0.53890  0.70880  0.75200  1.0000
  C   C69       1.0  0.67280  0.83820  0.20420  1.0000
  C   C70       1.0  0.32720  0.33820  0.29580  1.0000
  C   C71       1.0  0.32720  0.16180  0.79580  1.0000
  C   C72       1.0  0.67280  0.66180  0.70420  1.0000
  C   C73       1.0  0.71630  0.91340  0.84220  1.0000
  C   C74       1.0  0.28370  0.41340  0.65780  1.0000
  C   C75       1.0  0.28370  0.08660  0.15780  1.0000
  C   C76       1.0  0.71630  0.58660  0.34220  1.0000
  O   O25       1.0  0.78240  0.94860  0.79290  1.0000
  O   O26       1.0  0.21760  0.44860  0.70710  1.0000
  O   O27       1.0  0.21760  0.05140  0.20710  1.0000
  O   O28       1.0  0.78240  0.55140  0.29290  1.0000
  O   O29       1.0  0.64120  0.89560  0.77220  1.0000
  O   O30       1.0  0.35880  0.39560  0.72780  1.0000
  O   O31       1.0  0.35880  0.10440  0.22780  1.0000
  O   O32       1.0  0.64120  0.60440  0.27220  1.0000
  C   C77       1.0  0.90790  0.92070  0.13270  1.0000
  C   C78       1.0  0.09210  0.42070  0.36730  1.0000
  C   C79       1.0  0.09210  0.07930  0.86730  1.0000
  C   C80       1.0  0.90790  0.57930  0.63270  1.0000
  O   O33       1.0  0.96780  0.90900  0.24050  1.0000
  O   O34       1.0  0.03220  0.40900  0.25950  1.0000
  O   O35       1.0  0.03220  0.09100  0.75950  1.0000
  O   O36       1.0  0.96780  0.59100  0.74050  1.0000
  O   O37       1.0  0.93460  0.95730  0.02800  1.0000
  O   O38       1.0  0.06540  0.45730  0.47200  1.0000
  O   O39       1.0  0.06540  0.04270  0.97200  1.0000
  O   O40       1.0  0.93460  0.54270  0.52800  1.0000
  O   O41       1.0  0.84730  0.06960  0.02530  1.0000
  O   O42       1.0  0.15270  0.56960  0.47470  1.0000
  O   O43       1.0  0.15270  0.93040  0.97470  1.0000
  O   O44       1.0  0.84730  0.43040  0.52530  1.0000
  H   H33       1.0  0.88510  0.06110  0.11260  1.0000
  H   H34       1.0  0.11490  0.56110  0.38740  1.0000
  H   H35       1.0  0.11490  0.93890  0.88740  1.0000
  H   H36       1.0  0.88510  0.43890  0.61260  1.0000
  H   H37       1.0  0.79570  0.09520  0.02070  1.0000
  H   H38       1.0  0.20430  0.59520  0.47930  1.0000
  H   H39       1.0  0.20430  0.90480  0.97930  1.0000
  H   H40       1.0  0.79570  0.40480  0.52070  1.0000
