data_image0
_chemical_formula_structural       Co6I4C8H4C4H4C8H4C4H4C8O16C8H4C4H4C4O8
_chemical_formula_sum              "Co6 I4 C48 H24 O24"
_cell_length_a       13.2753
_cell_length_b       9.4165
_cell_length_c       18.776
_cell_angle_alpha    90
_cell_angle_beta     110.276
_cell_angle_gamma    90

_space_group_name_H-M_alt    "P 1"
_space_group_IT_number       1

loop_
  _space_group_symop_operation_xyz
  'x, y, z'

loop_
  _atom_site_type_symbol
  _atom_site_label
  _atom_site_symmetry_multiplicity
  _atom_site_fract_x
  _atom_site_fract_y
  _atom_site_fract_z
  _atom_site_occupancy
  Co  Co1       1.0  0.50000  0.00000  0.00000  1.0000
  Co  Co2       1.0  0.50000  0.50000  0.50000  1.0000
  Co  Co3       1.0  0.75906  0.96695  0.06408  1.0000
  Co  Co4       1.0  0.24094  0.46695  0.43592  1.0000
  Co  Co5       1.0  0.24094  0.03305  0.93592  1.0000
  Co  Co6       1.0  0.75906  0.53305  0.56408  1.0000
  I   I1        1.0  0.94166  0.84286  0.08493  1.0000
  I   I2        1.0  0.05834  0.34286  0.41507  1.0000
  I   I3        1.0  0.05834  0.15714  0.91507  1.0000
  I   I4        1.0  0.94166  0.65714  0.58493  1.0000
  C   C1        1.0  0.66710  0.17220  0.22770  1.0000
  C   C2        1.0  0.33290  0.67220  0.27230  1.0000
  C   C3        1.0  0.33290  0.82780  0.77230  1.0000
  C   C4        1.0  0.66710  0.32780  0.72770  1.0000
  C   C5        1.0  0.57150  0.18540  0.24190  1.0000
  C   C6        1.0  0.42850  0.68540  0.25810  1.0000
  C   C7        1.0  0.42850  0.81460  0.75810  1.0000
  C   C8        1.0  0.57150  0.31460  0.74190  1.0000
  H   H1        1.0  0.50830  0.15290  0.20570  1.0000
  H   H2        1.0  0.49170  0.65290  0.29430  1.0000
  H   H3        1.0  0.49170  0.84710  0.79430  1.0000
  H   H4        1.0  0.50830  0.34710  0.70570  1.0000
  C   C9        1.0  0.56720  0.24390  0.30660  1.0000
  C   C10       1.0  0.43280  0.74390  0.19340  1.0000
  C   C11       1.0  0.43280  0.75610  0.69340  1.0000
  C   C12       1.0  0.56720  0.25610  0.80660  1.0000
  H   H5        1.0  0.50160  0.25110  0.31400  1.0000
  H   H6        1.0  0.49840  0.75110  0.18600  1.0000
  H   H7        1.0  0.49840  0.74890  0.68600  1.0000
  H   H8        1.0  0.50160  0.24890  0.81400  1.0000
  C   C13       1.0  0.66010  0.29360  0.36210  1.0000
  C   C14       1.0  0.33990  0.79360  0.13790  1.0000
  C   C15       1.0  0.33990  0.70640  0.63790  1.0000
  C   C16       1.0  0.66010  0.20640  0.86210  1.0000
  C   C17       1.0  0.75660  0.28050  0.34880  1.0000
  C   C18       1.0  0.24340  0.78050  0.15120  1.0000
  C   C19       1.0  0.24340  0.71950  0.65120  1.0000
  C   C20       1.0  0.75660  0.21950  0.84880  1.0000
  H   H9        1.0  0.81940  0.31300  0.38540  1.0000
  H   H10       1.0  0.18060  0.81300  0.11460  1.0000
  H   H11       1.0  0.18060  0.68700  0.61460  1.0000
  H   H12       1.0  0.81940  0.18700  0.88540  1.0000
  C   C21       1.0  0.76190  0.22150  0.28360  1.0000
  C   C22       1.0  0.23810  0.72150  0.21640  1.0000
  C   C23       1.0  0.23810  0.77850  0.71640  1.0000
  C   C24       1.0  0.76190  0.27850  0.78360  1.0000
  H   H13       1.0  0.82740  0.21400  0.27620  1.0000
  H   H14       1.0  0.17260  0.71400  0.22380  1.0000
  H   H15       1.0  0.17260  0.78600  0.72380  1.0000
  H   H16       1.0  0.82740  0.28600  0.77620  1.0000
  C   C25       1.0  0.67100  0.10650  0.15640  1.0000
  C   C26       1.0  0.32900  0.60650  0.34360  1.0000
  C   C27       1.0  0.32900  0.89350  0.84360  1.0000
  C   C28       1.0  0.67100  0.39350  0.65640  1.0000
  C   C29       1.0  0.65550  0.36260  0.43190  1.0000
  C   C30       1.0  0.34450  0.86260  0.06810  1.0000
  C   C31       1.0  0.34450  0.63740  0.56810  1.0000
  C   C32       1.0  0.65550  0.13740  0.93190  1.0000
  O   O1        1.0  0.58230  0.09000  0.10438  1.0000
  O   O2        1.0  0.41770  0.59000  0.39562  1.0000
  O   O3        1.0  0.41770  0.91000  0.89562  1.0000
  O   O4        1.0  0.58230  0.41000  0.60438  1.0000
  O   O5        1.0  0.76030  0.07420  0.15328  1.0000
  O   O6        1.0  0.23970  0.57420  0.34672  1.0000
  O   O7        1.0  0.23970  0.92580  0.84672  1.0000
  O   O8        1.0  0.76030  0.42580  0.65328  1.0000
  O   O9        1.0  0.74500  0.40450  0.47891  1.0000
  O   O10       1.0  0.25500  0.90450  0.02109  1.0000
  O   O11       1.0  0.25500  0.59550  0.52109  1.0000
  O   O12       1.0  0.74500  0.09550  0.97891  1.0000
  O   O13       1.0  0.56720  0.37320  0.44004  1.0000
  O   O14       1.0  0.43280  0.87320  0.05996  1.0000
  O   O15       1.0  0.43280  0.62680  0.55996  1.0000
  O   O16       1.0  0.56720  0.12680  0.94004  1.0000
  C   C33       1.0  0.56480  0.61180  0.02990  1.0000
  C   C34       1.0  0.43520  0.11180  0.47010  1.0000
  C   C35       1.0  0.43520  0.38820  0.97010  1.0000
  C   C36       1.0  0.56480  0.88820  0.52990  1.0000
  C   C37       1.0  0.51240  0.61040  0.95340  1.0000
  C   C38       1.0  0.48760  0.11040  0.54660  1.0000
  C   C39       1.0  0.48760  0.38960  0.04660  1.0000
  C   C40       1.0  0.51240  0.88960  0.45340  1.0000
  H   H17       1.0  0.51970  0.68450  0.92280  1.0000
  H   H18       1.0  0.48030  0.18450  0.57720  1.0000
  H   H19       1.0  0.48030  0.31550  0.07720  1.0000
  H   H20       1.0  0.51970  0.81550  0.42280  1.0000
  C   C41       1.0  0.55260  0.50610  0.07710  1.0000
  C   C42       1.0  0.44740  0.00610  0.42290  1.0000
  C   C43       1.0  0.44740  0.49390  0.92290  1.0000
  C   C44       1.0  0.55260  0.99390  0.57710  1.0000
  H   H21       1.0  0.58770  0.51270  0.12930  1.0000
  H   H22       1.0  0.41230  0.01270  0.37070  1.0000
  H   H23       1.0  0.41230  0.48730  0.87070  1.0000
  H   H24       1.0  0.58770  0.98730  0.62930  1.0000
  C   C45       1.0  0.63880  0.73730  0.06560  1.0000
  C   C46       1.0  0.36120  0.23730  0.43440  1.0000
  C   C47       1.0  0.36120  0.26270  0.93440  1.0000
  C   C48       1.0  0.63880  0.76270  0.56560  1.0000
  O   O17       1.0  0.70300  0.73340  0.12960  1.0000
  O   O18       1.0  0.29700  0.23340  0.37040  1.0000
  O   O19       1.0  0.29700  0.26660  0.87040  1.0000
  O   O20       1.0  0.70300  0.76660  0.62960  1.0000
  O   O21       1.0  0.62960  0.84780  0.02065  1.0000
  O   O22       1.0  0.37040  0.34780  0.47935  1.0000
  O   O23       1.0  0.37040  0.15220  0.97935  1.0000
  O   O24       1.0  0.62960  0.65220  0.52065  1.0000
