data_image0
_chemical_formula_structural       Co6Cl4O16C8H4C4H4C8H4C4H4C8O8C8H4C4H4C4
_chemical_formula_sum              "Co6 Cl4 O24 C48 H24"
_cell_length_a       12.809
_cell_length_b       9.6002
_cell_length_c       18.0191
_cell_angle_alpha    90
_cell_angle_beta     108.042
_cell_angle_gamma    90

_space_group_name_H-M_alt    "P 1"
_space_group_IT_number       1

loop_
  _space_group_symop_operation_xyz
  'x, y, z'

loop_
  _atom_site_type_symbol
  _atom_site_label
  _atom_site_symmetry_multiplicity
  _atom_site_fract_x
  _atom_site_fract_y
  _atom_site_fract_z
  _atom_site_occupancy
  Co  Co1       1.0  0.30134  0.04108  0.07382  1.0000
  Co  Co2       1.0  0.19866  0.54108  0.42618  1.0000
  Co  Co3       1.0  0.69866  0.95892  0.92618  1.0000
  Co  Co4       1.0  0.80134  0.45892  0.57382  1.0000
  Co  Co5       1.0  0.50000  0.00000  0.00000  1.0000
  Co  Co6       1.0  0.00000  0.50000  0.50000  1.0000
  Cl  Cl1       1.0  0.16377  0.14606  0.10501  1.0000
  Cl  Cl2       1.0  0.33623  0.64606  0.39499  1.0000
  Cl  Cl3       1.0  0.83623  0.85394  0.89499  1.0000
  Cl  Cl4       1.0  0.66377  0.35394  0.60501  1.0000
  O   O1        1.0  0.22410  0.92300  0.98465  1.0000
  O   O2        1.0  0.27590  0.42300  0.51535  1.0000
  O   O3        1.0  0.77590  0.07700  0.01535  1.0000
  O   O4        1.0  0.72410  0.57700  0.48465  1.0000
  O   O5        1.0  0.37021  0.87370  0.94692  1.0000
  O   O6        1.0  0.12979  0.37370  0.55308  1.0000
  O   O7        1.0  0.62979  0.12630  0.05308  1.0000
  O   O8        1.0  0.87021  0.62630  0.44692  1.0000
  O   O9        1.0  0.89130  0.56830  0.66286  1.0000
  O   O10       1.0  0.60870  0.06830  0.83714  1.0000
  O   O11       1.0  0.10870  0.43170  0.33714  1.0000
  O   O12       1.0  0.39130  0.93170  0.16286  1.0000
  O   O13       1.0  0.02590  0.58290  0.60870  1.0000
  O   O14       1.0  0.47410  0.08290  0.89130  1.0000
  O   O15       1.0  0.97410  0.41710  0.39130  1.0000
  O   O16       1.0  0.52590  0.91710  0.10870  1.0000
  C   C1        1.0  0.19660  0.79870  0.86763  1.0000
  C   C2        1.0  0.30340  0.29870  0.63237  1.0000
  C   C3        1.0  0.80340  0.20130  0.13237  1.0000
  C   C4        1.0  0.69660  0.70130  0.36763  1.0000
  C   C5        1.0  0.23970  0.74390  0.81240  1.0000
  C   C6        1.0  0.26030  0.24390  0.68760  1.0000
  C   C7        1.0  0.76030  0.25610  0.18760  1.0000
  C   C8        1.0  0.73970  0.75610  0.31240  1.0000
  H   H1        1.0  0.31480  0.74960  0.81970  1.0000
  H   H2        1.0  0.18520  0.24960  0.68030  1.0000
  H   H3        1.0  0.68520  0.25040  0.18030  1.0000
  H   H4        1.0  0.81480  0.75040  0.31970  1.0000
  C   C9        1.0  0.17140  0.68080  0.74640  1.0000
  C   C10       1.0  0.32860  0.18080  0.75360  1.0000
  C   C11       1.0  0.82860  0.31920  0.25360  1.0000
  C   C12       1.0  0.67140  0.81920  0.24640  1.0000
  H   H5        1.0  0.20040  0.64500  0.70900  1.0000
  H   H6        1.0  0.29960  0.14500  0.79100  1.0000
  H   H7        1.0  0.79960  0.35500  0.29100  1.0000
  H   H8        1.0  0.70040  0.85500  0.20900  1.0000
  C   C13       1.0  0.06010  0.67030  0.73551  1.0000
  C   C14       1.0  0.43990  0.17030  0.76449  1.0000
  C   C15       1.0  0.93990  0.32970  0.26449  1.0000
  C   C16       1.0  0.56010  0.82970  0.23551  1.0000
  C   C17       1.0  0.01720  0.72320  0.79116  1.0000
  C   C18       1.0  0.48280  0.22320  0.70884  1.0000
  C   C19       1.0  0.98280  0.27680  0.20884  1.0000
  C   C20       1.0  0.51720  0.77680  0.29116  1.0000
  H   H9        1.0  0.94250  0.71510  0.78460  1.0000
  H   H10       1.0  0.55750  0.21510  0.71540  1.0000
  H   H11       1.0  0.05750  0.28490  0.21540  1.0000
  H   H12       1.0  0.44250  0.78490  0.28460  1.0000
  C   C21       1.0  0.08530  0.78820  0.85660  1.0000
  C   C22       1.0  0.41470  0.28820  0.64340  1.0000
  C   C23       1.0  0.91470  0.21180  0.14340  1.0000
  C   C24       1.0  0.58530  0.71180  0.35660  1.0000
  H   H13       1.0  0.05600  0.82530  0.89350  1.0000
  H   H14       1.0  0.44400  0.32530  0.60650  1.0000
  H   H15       1.0  0.94400  0.17470  0.10650  1.0000
  H   H16       1.0  0.55600  0.67470  0.39350  1.0000
  C   C25       1.0  0.27030  0.87060  0.93856  1.0000
  C   C26       1.0  0.22970  0.37060  0.56144  1.0000
  C   C27       1.0  0.72970  0.12940  0.06144  1.0000
  C   C28       1.0  0.77030  0.62940  0.43856  1.0000
  C   C29       1.0  0.98720  0.60160  0.66302  1.0000
  C   C30       1.0  0.51280  0.10160  0.83698  1.0000
  C   C31       1.0  0.01280  0.39840  0.33698  1.0000
  C   C32       1.0  0.48720  0.89840  0.16302  1.0000
  O   O17       1.0  0.39262  0.15660  0.02673  1.0000
  O   O18       1.0  0.10738  0.65660  0.47327  1.0000
  O   O19       1.0  0.60738  0.84340  0.97327  1.0000
  O   O20       1.0  0.89262  0.34340  0.52673  1.0000
  O   O21       1.0  0.43880  0.26340  0.14123  1.0000
  O   O22       1.0  0.06120  0.76340  0.35877  1.0000
  O   O23       1.0  0.56120  0.73660  0.85877  1.0000
  O   O24       1.0  0.93880  0.23660  0.64123  1.0000
  C   C33       1.0  0.46950  0.38420  0.03500  1.0000
  C   C34       1.0  0.03050  0.88420  0.46500  1.0000
  C   C35       1.0  0.53050  0.61580  0.96500  1.0000
  C   C36       1.0  0.96950  0.11580  0.53500  1.0000
  C   C37       1.0  0.52080  0.49660  0.07990  1.0000
  C   C38       1.0  0.97920  0.99660  0.42010  1.0000
  C   C39       1.0  0.47920  0.50340  0.92010  1.0000
  C   C40       1.0  0.02080  0.00340  0.57990  1.0000
  H   H17       1.0  0.53490  0.49460  0.13370  1.0000
  H   H18       1.0  0.96510  0.99460  0.36630  1.0000
  H   H19       1.0  0.46510  0.50540  0.86630  1.0000
  H   H20       1.0  0.03490  0.00540  0.63370  1.0000
  C   C41       1.0  0.55100  0.61090  0.04560  1.0000
  C   C42       1.0  0.94900  0.11090  0.45440  1.0000
  C   C43       1.0  0.44900  0.38910  0.95440  1.0000
  C   C44       1.0  0.05100  0.88910  0.54560  1.0000
  H   H21       1.0  0.58540  0.68570  0.07630  1.0000
  H   H22       1.0  0.91460  0.18570  0.42370  1.0000
  H   H23       1.0  0.41460  0.31430  0.92370  1.0000
  H   H24       1.0  0.08540  0.81430  0.57630  1.0000
  C   C45       1.0  0.43400  0.26220  0.07220  1.0000
  C   C46       1.0  0.06600  0.76220  0.42780  1.0000
  C   C47       1.0  0.56600  0.73780  0.92780  1.0000
  C   C48       1.0  0.93400  0.23780  0.57220  1.0000
