data_image0
_chemical_formula_structural       Gd8O72N16C8H16C16H16C16H16C8H16C8H16C8H16C16H16C8H16
_chemical_formula_sum              "Gd8 O72 N16 C88 H128"
_cell_length_a       18.171
_cell_length_b       9.2651
_cell_length_c       25.2
_cell_angle_alpha    90
_cell_angle_beta     100.569
_cell_angle_gamma    90

_space_group_name_H-M_alt    "P 1"
_space_group_IT_number       1

loop_
  _space_group_symop_operation_xyz
  'x, y, z'

loop_
  _atom_site_type_symbol
  _atom_site_label
  _atom_site_symmetry_multiplicity
  _atom_site_fract_x
  _atom_site_fract_y
  _atom_site_fract_z
  _atom_site_occupancy
  Gd  Gd1       1.0  0.73762  0.69602  0.31769  1.0000
  Gd  Gd2       1.0  0.26238  0.69602  0.18231  1.0000
  Gd  Gd3       1.0  0.23762  0.19602  0.31769  1.0000
  Gd  Gd4       1.0  0.76238  0.19602  0.18231  1.0000
  Gd  Gd5       1.0  0.26238  0.30398  0.68231  1.0000
  Gd  Gd6       1.0  0.73762  0.30398  0.81769  1.0000
  Gd  Gd7       1.0  0.76238  0.80398  0.68231  1.0000
  Gd  Gd8       1.0  0.23762  0.80398  0.81769  1.0000
  O   O1        1.0  0.67023  0.68182  0.38855  1.0000
  O   O2        1.0  0.32977  0.68182  0.11145  1.0000
  O   O3        1.0  0.17023  0.18182  0.38855  1.0000
  O   O4        1.0  0.82977  0.18182  0.11145  1.0000
  O   O5        1.0  0.32977  0.31818  0.61145  1.0000
  O   O6        1.0  0.67023  0.31818  0.88855  1.0000
  O   O7        1.0  0.82977  0.81818  0.61145  1.0000
  O   O8        1.0  0.17023  0.81818  0.88855  1.0000
  O   O9        1.0  0.61756  0.54565  0.44430  1.0000
  O   O10       1.0  0.38244  0.54565  0.05570  1.0000
  O   O11       1.0  0.11756  0.04565  0.44430  1.0000
  O   O12       1.0  0.88244  0.04565  0.05570  1.0000
  O   O13       1.0  0.38244  0.45435  0.55570  1.0000
  O   O14       1.0  0.61756  0.45435  0.94430  1.0000
  O   O15       1.0  0.88244  0.95435  0.55570  1.0000
  O   O16       1.0  0.11756  0.95435  0.94430  1.0000
  O   O17       1.0  0.72749  0.46016  0.28179  1.0000
  O   O18       1.0  0.27251  0.46016  0.21821  1.0000
  O   O19       1.0  0.22749  0.96016  0.28179  1.0000
  O   O20       1.0  0.77251  0.96016  0.21821  1.0000
  O   O21       1.0  0.27251  0.53984  0.71821  1.0000
  O   O22       1.0  0.72749  0.53984  0.78179  1.0000
  O   O23       1.0  0.77251  0.03984  0.71821  1.0000
  O   O24       1.0  0.22749  0.03984  0.78179  1.0000
  O   O25       1.0  0.77498  0.23979  0.27621  1.0000
  O   O26       1.0  0.22502  0.23979  0.22379  1.0000
  O   O27       1.0  0.27498  0.73979  0.27621  1.0000
  O   O28       1.0  0.72502  0.73979  0.22379  1.0000
  O   O29       1.0  0.22502  0.76021  0.72379  1.0000
  O   O30       1.0  0.77498  0.76021  0.77621  1.0000
  O   O31       1.0  0.72502  0.26021  0.72379  1.0000
  O   O32       1.0  0.27498  0.26021  0.77621  1.0000
  O   O33       1.0  0.69728  0.93687  0.32452  1.0000
  O   O34       1.0  0.30272  0.93687  0.17548  1.0000
  O   O35       1.0  0.19728  0.43687  0.32452  1.0000
  O   O36       1.0  0.80272  0.43687  0.17548  1.0000
  O   O37       1.0  0.30272  0.06313  0.67548  1.0000
  O   O38       1.0  0.69728  0.06313  0.82452  1.0000
  O   O39       1.0  0.80272  0.56313  0.67548  1.0000
  O   O40       1.0  0.19728  0.56313  0.82452  1.0000
  O   O41       1.0  0.66980  0.10839  0.38010  1.0000
  O   O42       1.0  0.33020  0.10839  0.11990  1.0000
  O   O43       1.0  0.16980  0.60839  0.38010  1.0000
  O   O44       1.0  0.83020  0.60839  0.11990  1.0000
  O   O45       1.0  0.33020  0.89161  0.61990  1.0000
  O   O46       1.0  0.66980  0.89161  0.88010  1.0000
  O   O47       1.0  0.83020  0.39161  0.61990  1.0000
  O   O48       1.0  0.16980  0.39161  0.88010  1.0000
  O   O49       1.0  0.86667  0.71439  0.30890  1.0000
  O   O50       1.0  0.13333  0.71439  0.19110  1.0000
  O   O51       1.0  0.36667  0.21439  0.30890  1.0000
  O   O52       1.0  0.63333  0.21439  0.19110  1.0000
  O   O53       1.0  0.13333  0.28561  0.69110  1.0000
  O   O54       1.0  0.86667  0.28561  0.80890  1.0000
  O   O55       1.0  0.63333  0.78561  0.69110  1.0000
  O   O56       1.0  0.36667  0.78561  0.80890  1.0000
  O   O57       1.0  0.96465  0.86282  0.31264  1.0000
  O   O58       1.0  0.03535  0.86282  0.18736  1.0000
  O   O59       1.0  0.46465  0.36282  0.31264  1.0000
  O   O60       1.0  0.53535  0.36282  0.18736  1.0000
  O   O61       1.0  0.03535  0.13718  0.68736  1.0000
  O   O62       1.0  0.96465  0.13718  0.81264  1.0000
  O   O63       1.0  0.53535  0.63718  0.68736  1.0000
  O   O64       1.0  0.46465  0.63718  0.81264  1.0000
  O   O65       1.0  0.60847  0.68393  0.27797  1.0000
  O   O66       1.0  0.39153  0.68393  0.22203  1.0000
  O   O67       1.0  0.10847  0.18393  0.27797  1.0000
  O   O68       1.0  0.89153  0.18393  0.22203  1.0000
  O   O69       1.0  0.39153  0.31607  0.72203  1.0000
  O   O70       1.0  0.60847  0.31607  0.77797  1.0000
  O   O71       1.0  0.89153  0.81607  0.72203  1.0000
  O   O72       1.0  0.10847  0.81607  0.77797  1.0000
  N   N1        1.0  0.78549  0.48705  0.38823  1.0000
  N   N2        1.0  0.21451  0.48705  0.11177  1.0000
  N   N3        1.0  0.28549  0.98705  0.38823  1.0000
  N   N4        1.0  0.71451  0.98705  0.11177  1.0000
  N   N5        1.0  0.21451  0.51295  0.61177  1.0000
  N   N6        1.0  0.78549  0.51295  0.88823  1.0000
  N   N7        1.0  0.71451  0.01295  0.61177  1.0000
  N   N8        1.0  0.28549  0.01295  0.88823  1.0000
  N   N9        1.0  0.82093  0.85089  0.39184  1.0000
  N   N10       1.0  0.17907  0.85089  0.10816  1.0000
  N   N11       1.0  0.32093  0.35089  0.39184  1.0000
  N   N12       1.0  0.67907  0.35089  0.10816  1.0000
  N   N13       1.0  0.17907  0.14911  0.60816  1.0000
  N   N14       1.0  0.82093  0.14911  0.89184  1.0000
  N   N15       1.0  0.67907  0.64911  0.60816  1.0000
  N   N16       1.0  0.32093  0.64911  0.89184  1.0000
  C   C1        1.0  0.71501  0.44110  0.40539  1.0000
  C   C2        1.0  0.28499  0.44110  0.09461  1.0000
  C   C3        1.0  0.21501  0.94110  0.40539  1.0000
  C   C4        1.0  0.78499  0.94110  0.09461  1.0000
  C   C5        1.0  0.28499  0.55890  0.59461  1.0000
  C   C6        1.0  0.71501  0.55890  0.90539  1.0000
  C   C7        1.0  0.78499  0.05890  0.59461  1.0000
  C   C8        1.0  0.21501  0.05890  0.90539  1.0000
  H   H1        1.0  0.72780  0.38530  0.43930  1.0000
  H   H2        1.0  0.27220  0.38530  0.06070  1.0000
  H   H3        1.0  0.22780  0.88530  0.43930  1.0000
  H   H4        1.0  0.77220  0.88530  0.06070  1.0000
  H   H5        1.0  0.27220  0.61470  0.56070  1.0000
  H   H6        1.0  0.72780  0.61470  0.93930  1.0000
  H   H7        1.0  0.77220  0.11470  0.56070  1.0000
  H   H8        1.0  0.22780  0.11470  0.93930  1.0000
  H   H9        1.0  0.68720  0.37620  0.37750  1.0000
  H   H10       1.0  0.31280  0.37620  0.12250  1.0000
  H   H11       1.0  0.18720  0.87620  0.37750  1.0000
  H   H12       1.0  0.81280  0.87620  0.12250  1.0000
  H   H13       1.0  0.31280  0.62380  0.62250  1.0000
  H   H14       1.0  0.68720  0.62380  0.87750  1.0000
  H   H15       1.0  0.81280  0.12380  0.62250  1.0000
  H   H16       1.0  0.18720  0.12380  0.87750  1.0000
  C   C9        1.0  0.66431  0.56610  0.41427  1.0000
  C   C10       1.0  0.33569  0.56610  0.08573  1.0000
  C   C11       1.0  0.16431  0.06610  0.41427  1.0000
  C   C12       1.0  0.83569  0.06610  0.08573  1.0000
  C   C13       1.0  0.33569  0.43390  0.58573  1.0000
  C   C14       1.0  0.66431  0.43390  0.91427  1.0000
  C   C15       1.0  0.83569  0.93390  0.58573  1.0000
  C   C16       1.0  0.16431  0.93390  0.91427  1.0000
  C   C17       1.0  0.81227  0.36750  0.35780  1.0000
  C   C18       1.0  0.18773  0.36750  0.14220  1.0000
  C   C19       1.0  0.31227  0.86750  0.35780  1.0000
  C   C20       1.0  0.68773  0.86750  0.14220  1.0000
  C   C21       1.0  0.18773  0.63250  0.64220  1.0000
  C   C22       1.0  0.81227  0.63250  0.85780  1.0000
  C   C23       1.0  0.68773  0.13250  0.64220  1.0000
  C   C24       1.0  0.31227  0.13250  0.85780  1.0000
  H   H17       1.0  0.80890  0.27580  0.37740  1.0000
  H   H18       1.0  0.19110  0.27580  0.12260  1.0000
  H   H19       1.0  0.30890  0.77580  0.37740  1.0000
  H   H20       1.0  0.69110  0.77580  0.12260  1.0000
  H   H21       1.0  0.19110  0.72420  0.62260  1.0000
  H   H22       1.0  0.80890  0.72420  0.87740  1.0000
  H   H23       1.0  0.69110  0.22420  0.62260  1.0000
  H   H24       1.0  0.30890  0.22420  0.87740  1.0000
  H   H25       1.0  0.86560  0.38390  0.35590  1.0000
  H   H26       1.0  0.13440  0.38390  0.14410  1.0000
  H   H27       1.0  0.36560  0.88390  0.35590  1.0000
  H   H28       1.0  0.63440  0.88390  0.14410  1.0000
  H   H29       1.0  0.13440  0.61610  0.64410  1.0000
  H   H30       1.0  0.86560  0.61610  0.85590  1.0000
  H   H31       1.0  0.63440  0.11610  0.64410  1.0000
  H   H32       1.0  0.36560  0.11610  0.85590  1.0000
  C   C25       1.0  0.76732  0.35430  0.30100  1.0000
  C   C26       1.0  0.23268  0.35430  0.19900  1.0000
  C   C27       1.0  0.26732  0.85430  0.30100  1.0000
  C   C28       1.0  0.73268  0.85430  0.19900  1.0000
  C   C29       1.0  0.23268  0.64570  0.69900  1.0000
  C   C30       1.0  0.76732  0.64570  0.80100  1.0000
  C   C31       1.0  0.73268  0.14570  0.69900  1.0000
  C   C32       1.0  0.26732  0.14570  0.80100  1.0000
  C   C33       1.0  0.84418  0.51430  0.43720  1.0000
  C   C34       1.0  0.15582  0.51430  0.06280  1.0000
  C   C35       1.0  0.34418  0.01430  0.43720  1.0000
  C   C36       1.0  0.65582  0.01430  0.06280  1.0000
  C   C37       1.0  0.15582  0.48570  0.56280  1.0000
  C   C38       1.0  0.84418  0.48570  0.93720  1.0000
  C   C39       1.0  0.65582  0.98570  0.56280  1.0000
  C   C40       1.0  0.34418  0.98570  0.93720  1.0000
  H   H33       1.0  0.89390  0.50770  0.42660  1.0000
  H   H34       1.0  0.10610  0.50770  0.07340  1.0000
  H   H35       1.0  0.39390  0.00770  0.42660  1.0000
  H   H36       1.0  0.60610  0.00770  0.07340  1.0000
  H   H37       1.0  0.10610  0.49230  0.57340  1.0000
  H   H38       1.0  0.89390  0.49230  0.92660  1.0000
  H   H39       1.0  0.60610  0.99230  0.57340  1.0000
  H   H40       1.0  0.39390  0.99230  0.92660  1.0000
  H   H41       1.0  0.84130  0.43650  0.46370  1.0000
  H   H42       1.0  0.15870  0.43650  0.03630  1.0000
  H   H43       1.0  0.34130  0.93650  0.46370  1.0000
  H   H44       1.0  0.65870  0.93650  0.03630  1.0000
  H   H45       1.0  0.15870  0.56350  0.53630  1.0000
  H   H46       1.0  0.84130  0.56350  0.96370  1.0000
  H   H47       1.0  0.65870  0.06350  0.53630  1.0000
  H   H48       1.0  0.34130  0.06350  0.96370  1.0000
  C   C41       1.0  0.83889  0.65890  0.46496  1.0000
  C   C42       1.0  0.16111  0.65890  0.03504  1.0000
  C   C43       1.0  0.33889  0.15890  0.46496  1.0000
  C   C44       1.0  0.66111  0.15890  0.03504  1.0000
  C   C45       1.0  0.16111  0.34110  0.53504  1.0000
  C   C46       1.0  0.83889  0.34110  0.96496  1.0000
  C   C47       1.0  0.66111  0.84110  0.53504  1.0000
  C   C48       1.0  0.33889  0.84110  0.96496  1.0000
  H   H49       1.0  0.86480  0.65150  0.50300  1.0000
  H   H50       1.0  0.13520  0.65150  0.99700  1.0000
  H   H51       1.0  0.36480  0.15150  0.50300  1.0000
  H   H52       1.0  0.63520  0.15150  0.99700  1.0000
  H   H53       1.0  0.13520  0.34850  0.49700  1.0000
  H   H54       1.0  0.86480  0.34850  0.00300  1.0000
  H   H55       1.0  0.63520  0.84850  0.49700  1.0000
  H   H56       1.0  0.36480  0.84850  0.00300  1.0000
  H   H57       1.0  0.78560  0.68080  0.46500  1.0000
  H   H58       1.0  0.21440  0.68080  0.03500  1.0000
  H   H59       1.0  0.28560  0.18080  0.46500  1.0000
  H   H60       1.0  0.71440  0.18080  0.03500  1.0000
  H   H61       1.0  0.21440  0.31920  0.53500  1.0000
  H   H62       1.0  0.78560  0.31920  0.96500  1.0000
  H   H63       1.0  0.71440  0.81920  0.53500  1.0000
  H   H64       1.0  0.28560  0.81920  0.96500  1.0000
  C   C49       1.0  0.87296  0.78290  0.43794  1.0000
  C   C50       1.0  0.12704  0.78290  0.06206  1.0000
  C   C51       1.0  0.37296  0.28290  0.43794  1.0000
  C   C52       1.0  0.62704  0.28290  0.06206  1.0000
  C   C53       1.0  0.12704  0.21710  0.56206  1.0000
  C   C54       1.0  0.87296  0.21710  0.93794  1.0000
  C   C55       1.0  0.62704  0.71710  0.56206  1.0000
  C   C56       1.0  0.37296  0.71710  0.93794  1.0000
  H   H65       1.0  0.89010  0.85810  0.46540  1.0000
  H   H66       1.0  0.10990  0.85810  0.03460  1.0000
  H   H67       1.0  0.39010  0.35810  0.46540  1.0000
  H   H68       1.0  0.60990  0.35810  0.03460  1.0000
  H   H69       1.0  0.10990  0.14190  0.53460  1.0000
  H   H70       1.0  0.89010  0.14190  0.96540  1.0000
  H   H71       1.0  0.60990  0.64190  0.53460  1.0000
  H   H72       1.0  0.39010  0.64190  0.96540  1.0000
  H   H73       1.0  0.91750  0.74670  0.42460  1.0000
  H   H74       1.0  0.08250  0.74670  0.07540  1.0000
  H   H75       1.0  0.41750  0.24670  0.42460  1.0000
  H   H76       1.0  0.58250  0.24670  0.07540  1.0000
  H   H77       1.0  0.08250  0.25330  0.57540  1.0000
  H   H78       1.0  0.91750  0.25330  0.92460  1.0000
  H   H79       1.0  0.58250  0.75330  0.57540  1.0000
  H   H80       1.0  0.41750  0.75330  0.92460  1.0000
  C   C57       1.0  0.77134  0.95260  0.41325  1.0000
  C   C58       1.0  0.22866  0.95260  0.08675  1.0000
  C   C59       1.0  0.27134  0.45260  0.41325  1.0000
  C   C60       1.0  0.72866  0.45260  0.08675  1.0000
  C   C61       1.0  0.22866  0.04740  0.58675  1.0000
  C   C62       1.0  0.77134  0.04740  0.91325  1.0000
  C   C63       1.0  0.72866  0.54740  0.58675  1.0000
  C   C64       1.0  0.27134  0.54740  0.91325  1.0000
  H   H81       1.0  0.80080  0.03700  0.42920  1.0000
  H   H82       1.0  0.19920  0.03700  0.07080  1.0000
  H   H83       1.0  0.30080  0.53700  0.42920  1.0000
  H   H84       1.0  0.69920  0.53700  0.07080  1.0000
  H   H85       1.0  0.19920  0.96300  0.57080  1.0000
  H   H86       1.0  0.80080  0.96300  0.92920  1.0000
  H   H87       1.0  0.69920  0.46300  0.57080  1.0000
  H   H88       1.0  0.30080  0.46300  0.92920  1.0000
  H   H89       1.0  0.75000  0.90490  0.44220  1.0000
  H   H90       1.0  0.25000  0.90490  0.05780  1.0000
  H   H91       1.0  0.25000  0.40490  0.44220  1.0000
  H   H92       1.0  0.75000  0.40490  0.05780  1.0000
  H   H93       1.0  0.25000  0.09510  0.55780  1.0000
  H   H94       1.0  0.75000  0.09510  0.94220  1.0000
  H   H95       1.0  0.75000  0.59510  0.55780  1.0000
  H   H96       1.0  0.25000  0.59510  0.94220  1.0000
  C   C65       1.0  0.70833  0.00310  0.36917  1.0000
  C   C66       1.0  0.29167  0.00310  0.13083  1.0000
  C   C67       1.0  0.20833  0.50310  0.36917  1.0000
  C   C68       1.0  0.79167  0.50310  0.13083  1.0000
  C   C69       1.0  0.29167  0.99690  0.63083  1.0000
  C   C70       1.0  0.70833  0.99690  0.86917  1.0000
  C   C71       1.0  0.79167  0.49690  0.63083  1.0000
  C   C72       1.0  0.20833  0.49690  0.86917  1.0000
  C   C73       1.0  0.86740  0.93220  0.35970  1.0000
  C   C74       1.0  0.13260  0.93220  0.14030  1.0000
  C   C75       1.0  0.36740  0.43220  0.35970  1.0000
  C   C76       1.0  0.63260  0.43220  0.14030  1.0000
  C   C77       1.0  0.13260  0.06780  0.64030  1.0000
  C   C78       1.0  0.86740  0.06780  0.85970  1.0000
  C   C79       1.0  0.63260  0.56780  0.64030  1.0000
  C   C80       1.0  0.36740  0.56780  0.85970  1.0000
  H   H97       1.0  0.90680  0.98610  0.38420  1.0000
  H   H98       1.0  0.09320  0.98610  0.11580  1.0000
  H   H99       1.0  0.40680  0.48610  0.38420  1.0000
  H   H100      1.0  0.59320  0.48610  0.11580  1.0000
  H   H101      1.0  0.09320  0.01390  0.61580  1.0000
  H   H102      1.0  0.90680  0.01390  0.88420  1.0000
  H   H103      1.0  0.59320  0.51390  0.61580  1.0000
  H   H104      1.0  0.40680  0.51390  0.88420  1.0000
  H   H105      1.0  0.83580  0.00270  0.33630  1.0000
  H   H106      1.0  0.16420  0.00270  0.16370  1.0000
  H   H107      1.0  0.33580  0.50270  0.33630  1.0000
  H   H108      1.0  0.66420  0.50270  0.16370  1.0000
  H   H109      1.0  0.16420  0.99730  0.66370  1.0000
  H   H110      1.0  0.83580  0.99730  0.83630  1.0000
  H   H111      1.0  0.66420  0.49730  0.66370  1.0000
  H   H112      1.0  0.33580  0.49730  0.83630  1.0000
  C   C81       1.0  0.90347  0.82880  0.32508  1.0000
  C   C82       1.0  0.09653  0.82880  0.17492  1.0000
  C   C83       1.0  0.40347  0.32880  0.32508  1.0000
  C   C84       1.0  0.59653  0.32880  0.17492  1.0000
  C   C85       1.0  0.09653  0.17120  0.67492  1.0000
  C   C86       1.0  0.90347  0.17120  0.82508  1.0000
  C   C87       1.0  0.59653  0.67120  0.67492  1.0000
  C   C88       1.0  0.40347  0.67120  0.82508  1.0000
  H   H113      1.0  0.59190  0.67900  0.24580  1.0000
  H   H114      1.0  0.40810  0.67900  0.25420  1.0000
  H   H115      1.0  0.09190  0.17900  0.24580  1.0000
  H   H116      1.0  0.90810  0.17900  0.25420  1.0000
  H   H117      1.0  0.40810  0.32100  0.75420  1.0000
  H   H118      1.0  0.59190  0.32100  0.74580  1.0000
  H   H119      1.0  0.90810  0.82100  0.75420  1.0000
  H   H120      1.0  0.09190  0.82100  0.74580  1.0000
  H   H121      1.0  0.57430  0.67900  0.29500  1.0000
  H   H122      1.0  0.42570  0.67900  0.20500  1.0000
  H   H123      1.0  0.07430  0.17900  0.29500  1.0000
  H   H124      1.0  0.92570  0.17900  0.20500  1.0000
  H   H125      1.0  0.42570  0.32100  0.70500  1.0000
  H   H126      1.0  0.57430  0.32100  0.79500  1.0000
  H   H127      1.0  0.92570  0.82100  0.70500  1.0000
  H   H128      1.0  0.07430  0.82100  0.79500  1.0000
