data_image0
_chemical_formula_structural       Co2N2C4H2C4H2C4O4C2O4C2O6H4
_chemical_formula_sum              "Co2 N2 C16 H8 O14"
_cell_length_a       8.092
_cell_length_b       8.998
_cell_length_c       10.884
_cell_angle_alpha    81.53
_cell_angle_beta     71.23
_cell_angle_gamma    82.8

_space_group_name_H-M_alt    "P 1"
_space_group_IT_number       1

loop_
  _space_group_symop_operation_xyz
  'x, y, z'

loop_
  _atom_site_type_symbol
  _atom_site_label
  _atom_site_symmetry_multiplicity
  _atom_site_fract_x
  _atom_site_fract_y
  _atom_site_fract_z
  _atom_site_occupancy
  Co  Co1       1.0  0.87098  0.90174  0.95017  1.0000
  Co  Co2       1.0  0.12902  0.09826  0.04983  1.0000
  N   N1        1.0  0.83210  0.68010  0.95440  1.0000
  N   N2        1.0  0.16790  0.31990  0.04560  1.0000
  C   C1        1.0  0.93870  0.60010  0.86170  1.0000
  C   C2        1.0  0.06130  0.39990  0.13830  1.0000
  C   C3        1.0  0.92617  0.44702  0.86631  1.0000
  C   C4        1.0  0.07383  0.55298  0.13369  1.0000
  H   H1        1.0  0.00380  0.39100  0.80330  1.0000
  H   H2        1.0  0.99620  0.60900  0.19670  1.0000
  C   C5        1.0  0.79433  0.37962  0.96779  1.0000
  C   C6        1.0  0.20567  0.62038  0.03221  1.0000
  C   C7        1.0  0.67931  0.46626  0.06073  1.0000
  C   C8        1.0  0.32069  0.53374  0.93927  1.0000
  H   H3        1.0  0.58680  0.42390  0.12660  1.0000
  H   H4        1.0  0.41320  0.57610  0.87340  1.0000
  C   C9        1.0  0.70585  0.61651  0.05278  1.0000
  C   C10       1.0  0.29415  0.38349  0.94722  1.0000
  C   C11       1.0  0.07679  0.69325  0.76254  1.0000
  C   C12       1.0  0.92321  0.30675  0.23746  1.0000
  O   O1        1.0  0.07300  0.82790  0.78870  1.0000
  O   O2        1.0  0.92700  0.17210  0.21130  1.0000
  O   O3        1.0  0.18150  0.63597  0.66923  1.0000
  O   O4        1.0  0.81850  0.36403  0.33077  1.0000
  C   C13       1.0  0.76940  0.21344  0.98083  1.0000
  C   C14       1.0  0.23060  0.78656  0.01917  1.0000
  O   O5        1.0  0.90910  0.12200  0.95140  1.0000
  O   O6        1.0  0.09090  0.87800  0.04860  1.0000
  O   O7        1.0  0.61970  0.17689  0.01790  1.0000
  O   O8        1.0  0.38030  0.82311  0.98210  1.0000
  C   C15       1.0  0.61130  0.72438  0.15268  1.0000
  C   C16       1.0  0.38870  0.27562  0.84732  1.0000
  O   O9        1.0  0.48590  0.68590  0.24530  1.0000
  O   O10       1.0  0.51410  0.31410  0.75470  1.0000
  O   O11       1.0  0.67780  0.85020  0.13100  1.0000
  O   O12       1.0  0.32220  0.14980  0.86900  1.0000
  O   O13       1.0  0.69800  0.95670  0.83280  1.0000
  O   O14       1.0  0.30200  0.04330  0.16720  1.0000
  H   H5        1.0  0.59750  0.93210  0.88070  1.0000
  H   H6        1.0  0.40250  0.06790  0.11930  1.0000
  H   H7        1.0  0.74910  0.01730  0.86020  1.0000
  H   H8        1.0  0.25090  0.98270  0.13980  1.0000
