data_image0
_chemical_formula_structural       Na4O24F12C24H8C8H8C16H8C8H8C16H8C8H8C4O4H8
_chemical_formula_sum              "Na4 O28 F12 C84 H56"
_cell_length_a       16.193
_cell_length_b       33.45
_cell_length_c       6.5169
_cell_angle_alpha    90
_cell_angle_beta     112.349
_cell_angle_gamma    90

_space_group_name_H-M_alt    "P 1"
_space_group_IT_number       1

loop_
  _space_group_symop_operation_xyz
  'x, y, z'

loop_
  _atom_site_type_symbol
  _atom_site_label
  _atom_site_symmetry_multiplicity
  _atom_site_fract_x
  _atom_site_fract_y
  _atom_site_fract_z
  _atom_site_occupancy
  Na  Na1       1.0  0.00000  0.30706  0.75000  1.0000
  Na  Na2       1.0  0.50000  0.80706  0.75000  1.0000
  Na  Na3       1.0  0.00000  0.69294  0.25000  1.0000
  Na  Na4       1.0  0.50000  0.19294  0.25000  1.0000
  O   O1        1.0  0.27698  0.31719  0.97414  1.0000
  O   O2        1.0  0.77698  0.81719  0.97414  1.0000
  O   O3        1.0  0.72302  0.31719  0.52586  1.0000
  O   O4        1.0  0.22302  0.81719  0.52586  1.0000
  O   O5        1.0  0.72302  0.68281  0.02586  1.0000
  O   O6        1.0  0.22302  0.18281  0.02586  1.0000
  O   O7        1.0  0.27698  0.68281  0.47414  1.0000
  O   O8        1.0  0.77698  0.18281  0.47414  1.0000
  O   O9        1.0  0.14494  0.32681  0.00023  1.0000
  O   O10       1.0  0.64494  0.82681  0.00023  1.0000
  O   O11       1.0  0.85506  0.32681  0.49977  1.0000
  O   O12       1.0  0.35506  0.82681  0.49977  1.0000
  O   O13       1.0  0.85506  0.67319  0.99977  1.0000
  O   O14       1.0  0.35506  0.17319  0.99977  1.0000
  O   O15       1.0  0.14494  0.67319  0.50023  1.0000
  O   O16       1.0  0.64494  0.17319  0.50023  1.0000
  O   O17       1.0  0.03594  0.30544  0.43393  1.0000
  O   O18       1.0  0.53594  0.80544  0.43393  1.0000
  O   O19       1.0  0.96406  0.30544  0.06607  1.0000
  O   O20       1.0  0.46406  0.80544  0.06607  1.0000
  O   O21       1.0  0.96406  0.69456  0.56607  1.0000
  O   O22       1.0  0.46406  0.19456  0.56607  1.0000
  O   O23       1.0  0.03594  0.69456  0.93393  1.0000
  O   O24       1.0  0.53594  0.19456  0.93393  1.0000
  F   F1        1.0  0.27048  0.50546  0.01595  1.0000
  F   F2        1.0  0.77048  0.00546  0.01595  1.0000
  F   F3        1.0  0.72952  0.50546  0.48405  1.0000
  F   F4        1.0  0.22952  0.00546  0.48405  1.0000
  F   F5        1.0  0.72952  0.49454  0.98405  1.0000
  F   F6        1.0  0.22952  0.99454  0.98405  1.0000
  F   F7        1.0  0.27048  0.49454  0.51595  1.0000
  F   F8        1.0  0.77048  0.99454  0.51595  1.0000
  F   F9        1.0  0.00000  0.49109  0.25000  1.0000
  F   F10       1.0  0.50000  0.99109  0.25000  1.0000
  F   F11       1.0  0.00000  0.50891  0.75000  1.0000
  F   F12       1.0  0.50000  0.00891  0.75000  1.0000
  C   C1        1.0  0.21670  0.33954  0.98960  1.0000
  C   C2        1.0  0.71670  0.83954  0.98960  1.0000
  C   C3        1.0  0.78330  0.33954  0.51040  1.0000
  C   C4        1.0  0.28330  0.83954  0.51040  1.0000
  C   C5        1.0  0.78330  0.66046  0.01040  1.0000
  C   C6        1.0  0.28330  0.16046  0.01040  1.0000
  C   C7        1.0  0.21670  0.66046  0.48960  1.0000
  C   C8        1.0  0.71670  0.16046  0.48960  1.0000
  C   C9        1.0  0.23177  0.38393  0.99680  1.0000
  C   C10       1.0  0.73177  0.88393  0.99680  1.0000
  C   C11       1.0  0.76823  0.38393  0.50320  1.0000
  C   C12       1.0  0.26823  0.88393  0.50320  1.0000
  C   C13       1.0  0.76823  0.61607  0.00320  1.0000
  C   C14       1.0  0.26823  0.11607  0.00320  1.0000
  C   C15       1.0  0.23177  0.61607  0.49680  1.0000
  C   C16       1.0  0.73177  0.11607  0.49680  1.0000
  C   C17       1.0  0.17330  0.40959  0.04250  1.0000
  C   C18       1.0  0.67330  0.90959  0.04250  1.0000
  C   C19       1.0  0.82670  0.40959  0.45750  1.0000
  C   C20       1.0  0.32670  0.90959  0.45750  1.0000
  C   C21       1.0  0.82670  0.59041  0.95750  1.0000
  C   C22       1.0  0.32670  0.09041  0.95750  1.0000
  C   C23       1.0  0.17330  0.59041  0.54250  1.0000
  C   C24       1.0  0.67330  0.09041  0.54250  1.0000
  H   H1        1.0  0.12390  0.39890  0.06880  1.0000
  H   H2        1.0  0.62390  0.89890  0.06880  1.0000
  H   H3        1.0  0.87610  0.39890  0.43120  1.0000
  H   H4        1.0  0.37610  0.89890  0.43120  1.0000
  H   H5        1.0  0.87610  0.60110  0.93120  1.0000
  H   H6        1.0  0.37610  0.10110  0.93120  1.0000
  H   H7        1.0  0.12390  0.60110  0.56880  1.0000
  H   H8        1.0  0.62390  0.10110  0.56880  1.0000
  C   C25       1.0  0.18627  0.45061  0.05030  1.0000
  C   C26       1.0  0.68627  0.95061  0.05030  1.0000
  C   C27       1.0  0.81373  0.45061  0.44970  1.0000
  C   C28       1.0  0.31373  0.95061  0.44970  1.0000
  C   C29       1.0  0.81373  0.54939  0.94970  1.0000
  C   C30       1.0  0.31373  0.04939  0.94970  1.0000
  C   C31       1.0  0.18627  0.54939  0.55030  1.0000
  C   C32       1.0  0.68627  0.04939  0.55030  1.0000
  H   H9        1.0  0.14690  0.46810  0.08360  1.0000
  H   H10       1.0  0.64690  0.96810  0.08360  1.0000
  H   H11       1.0  0.85310  0.46810  0.41640  1.0000
  H   H12       1.0  0.35310  0.96810  0.41640  1.0000
  H   H13       1.0  0.85310  0.53190  0.91640  1.0000
  H   H14       1.0  0.35310  0.03190  0.91640  1.0000
  H   H15       1.0  0.14690  0.53190  0.58360  1.0000
  H   H16       1.0  0.64690  0.03190  0.58360  1.0000
  C   C33       1.0  0.25735  0.46525  0.00870  1.0000
  C   C34       1.0  0.75735  0.96525  0.00870  1.0000
  C   C35       1.0  0.74265  0.46525  0.49130  1.0000
  C   C36       1.0  0.24265  0.96525  0.49130  1.0000
  C   C37       1.0  0.74265  0.53475  0.99130  1.0000
  C   C38       1.0  0.24265  0.03475  0.99130  1.0000
  C   C39       1.0  0.25735  0.53475  0.50870  1.0000
  C   C40       1.0  0.75735  0.03475  0.50870  1.0000
  C   C41       1.0  0.31642  0.44119  0.96120  1.0000
  C   C42       1.0  0.81642  0.94119  0.96120  1.0000
  C   C43       1.0  0.68358  0.44119  0.53880  1.0000
  C   C44       1.0  0.18358  0.94119  0.53880  1.0000
  C   C45       1.0  0.68358  0.55881  0.03880  1.0000
  C   C46       1.0  0.18358  0.05881  0.03880  1.0000
  C   C47       1.0  0.31642  0.55881  0.46120  1.0000
  C   C48       1.0  0.81642  0.05881  0.46120  1.0000
  H   H17       1.0  0.36480  0.45230  0.93210  1.0000
  H   H18       1.0  0.86480  0.95230  0.93210  1.0000
  H   H19       1.0  0.63520  0.45230  0.56790  1.0000
  H   H20       1.0  0.13520  0.95230  0.56790  1.0000
  H   H21       1.0  0.63520  0.54770  0.06790  1.0000
  H   H22       1.0  0.13520  0.04770  0.06790  1.0000
  H   H23       1.0  0.36480  0.54770  0.43210  1.0000
  H   H24       1.0  0.86480  0.04770  0.43210  1.0000
  C   C49       1.0  0.30349  0.40006  0.95680  1.0000
  C   C50       1.0  0.80349  0.90006  0.95680  1.0000
  C   C51       1.0  0.69651  0.40006  0.54320  1.0000
  C   C52       1.0  0.19651  0.90006  0.54320  1.0000
  C   C53       1.0  0.69651  0.59994  0.04320  1.0000
  C   C54       1.0  0.19651  0.09994  0.04320  1.0000
  C   C55       1.0  0.30349  0.59994  0.45680  1.0000
  C   C56       1.0  0.80349  0.09994  0.45680  1.0000
  H   H25       1.0  0.34400  0.38280  0.92620  1.0000
  H   H26       1.0  0.84400  0.88280  0.92620  1.0000
  H   H27       1.0  0.65600  0.38280  0.57380  1.0000
  H   H28       1.0  0.15600  0.88280  0.57380  1.0000
  H   H29       1.0  0.65600  0.61720  0.07380  1.0000
  H   H30       1.0  0.15600  0.11720  0.07380  1.0000
  H   H31       1.0  0.34400  0.61720  0.42620  1.0000
  H   H32       1.0  0.84400  0.11720  0.42620  1.0000
  C   C57       1.0  0.00000  0.32280  0.25000  1.0000
  C   C58       1.0  0.50000  0.82280  0.25000  1.0000
  C   C59       1.0  0.00000  0.67720  0.75000  1.0000
  C   C60       1.0  0.50000  0.17720  0.75000  1.0000
  C   C61       1.0  0.00000  0.36805  0.25000  1.0000
  C   C62       1.0  0.50000  0.86805  0.25000  1.0000
  C   C63       1.0  0.00000  0.63195  0.75000  1.0000
  C   C64       1.0  0.50000  0.13195  0.75000  1.0000
  C   C65       1.0  0.05339  0.38922  0.43700  1.0000
  C   C66       1.0  0.55339  0.88922  0.43700  1.0000
  C   C67       1.0  0.94661  0.38922  0.06300  1.0000
  C   C68       1.0  0.44661  0.88922  0.06300  1.0000
  C   C69       1.0  0.94661  0.61078  0.56300  1.0000
  C   C70       1.0  0.44661  0.11078  0.56300  1.0000
  C   C71       1.0  0.05339  0.61078  0.93700  1.0000
  C   C72       1.0  0.55339  0.11078  0.93700  1.0000
  H   H33       1.0  0.08970  0.37510  0.56620  1.0000
  H   H34       1.0  0.58970  0.87510  0.56620  1.0000
  H   H35       1.0  0.91030  0.37510  0.93380  1.0000
  H   H36       1.0  0.41030  0.87510  0.93380  1.0000
  H   H37       1.0  0.91030  0.62490  0.43380  1.0000
  H   H38       1.0  0.41030  0.12490  0.43380  1.0000
  H   H39       1.0  0.08970  0.62490  0.06620  1.0000
  H   H40       1.0  0.58970  0.12490  0.06620  1.0000
  C   C73       1.0  0.05441  0.43078  0.43810  1.0000
  C   C74       1.0  0.55441  0.93078  0.43810  1.0000
  C   C75       1.0  0.94559  0.43078  0.06190  1.0000
  C   C76       1.0  0.44559  0.93078  0.06190  1.0000
  C   C77       1.0  0.94559  0.56922  0.56190  1.0000
  C   C78       1.0  0.44559  0.06922  0.56190  1.0000
  C   C79       1.0  0.05441  0.56922  0.93810  1.0000
  C   C80       1.0  0.55441  0.06922  0.93810  1.0000
  H   H41       1.0  0.09160  0.44520  0.56500  1.0000
  H   H42       1.0  0.59160  0.94520  0.56500  1.0000
  H   H43       1.0  0.90840  0.44520  0.93500  1.0000
  H   H44       1.0  0.40840  0.94520  0.93500  1.0000
  H   H45       1.0  0.90840  0.55480  0.43500  1.0000
  H   H46       1.0  0.40840  0.05480  0.43500  1.0000
  H   H47       1.0  0.09160  0.55480  0.06500  1.0000
  H   H48       1.0  0.59160  0.05480  0.06500  1.0000
  C   C81       1.0  0.00000  0.45025  0.25000  1.0000
  C   C82       1.0  0.50000  0.95025  0.25000  1.0000
  C   C83       1.0  0.00000  0.54975  0.75000  1.0000
  C   C84       1.0  0.50000  0.04975  0.75000  1.0000
  O   O25       1.0  0.00000  0.23282  0.75000  1.0000
  O   O26       1.0  0.50000  0.73282  0.75000  1.0000
  O   O27       1.0  0.00000  0.76718  0.25000  1.0000
  O   O28       1.0  0.50000  0.26718  0.25000  1.0000
  H   H49       1.0  0.00880  0.21670  0.66200  1.0000
  H   H50       1.0  0.50880  0.71670  0.66200  1.0000
  H   H51       1.0  0.99120  0.21670  0.83800  1.0000
  H   H52       1.0  0.49120  0.71670  0.83800  1.0000
  H   H53       1.0  0.99120  0.78330  0.33800  1.0000
  H   H54       1.0  0.49120  0.28330  0.33800  1.0000
  H   H55       1.0  0.00880  0.78330  0.16200  1.0000
  H   H56       1.0  0.50880  0.28330  0.16200  1.0000
