data_image0
_chemical_formula_structural       V2O16P2N2C2H4C2H4C4H4C2CoN2O2H4C2H2C2H2
_chemical_formula_sum              "V2 O18 P2 N4 C14 H20 Co1"
_cell_length_a       7.22
_cell_length_b       10.14
_cell_length_c       12.08
_cell_angle_alpha    93.79
_cell_angle_beta     103.21
_cell_angle_gamma    104.21

_space_group_name_H-M_alt    "P 1"
_space_group_IT_number       1

loop_
  _space_group_symop_operation_xyz
  'x, y, z'

loop_
  _atom_site_type_symbol
  _atom_site_label
  _atom_site_symmetry_multiplicity
  _atom_site_fract_x
  _atom_site_fract_y
  _atom_site_fract_z
  _atom_site_occupancy
  V   V1        1.0  0.48819  0.03887  0.21076  1.0000
  V   V2        1.0  0.51181  0.96113  0.78924  1.0000
  O   O1        1.0  0.38825  0.29890  0.92992  1.0000
  O   O2        1.0  0.61175  0.70110  0.07008  1.0000
  O   O3        1.0  0.48337  0.16776  0.09285  1.0000
  O   O4        1.0  0.51663  0.83224  0.90715  1.0000
  O   O5        1.0  0.56779  0.11785  0.90678  1.0000
  O   O6        1.0  0.43221  0.88215  0.09322  1.0000
  O   O7        1.0  0.42943  0.07725  0.66491  1.0000
  O   O8        1.0  0.57057  0.92275  0.33509  1.0000
  O   O9        1.0  0.20210  0.16356  0.56053  1.0000
  O   O10       1.0  0.79790  0.83644  0.43947  1.0000
  O   O11       1.0  0.33410  0.79306  0.68114  1.0000
  O   O12       1.0  0.66590  0.20694  0.31886  1.0000
  O   O13       1.0  0.06480  0.62037  0.64107  1.0000
  O   O14       1.0  0.93520  0.37963  0.35893  1.0000
  O   O15       1.0  0.28336  0.03326  0.24126  1.0000
  O   O16       1.0  0.71664  0.96674  0.75874  1.0000
  P   P1        1.0  0.41953  0.16339  0.96220  1.0000
  P   P2        1.0  0.58047  0.83661  0.03780  1.0000
  N   N1        1.0  0.18692  0.95799  0.79481  1.0000
  N   N2        1.0  0.81308  0.04201  0.20519  1.0000
  C   C1        1.0  0.19160  0.02552  0.90872  1.0000
  C   C2        1.0  0.80840  0.97448  0.09128  1.0000
  H   H1        1.0  0.18390  0.95850  0.96230  1.0000
  H   H2        1.0  0.81610  0.04150  0.03770  1.0000
  H   H3        1.0  0.07860  0.06280  0.90230  1.0000
  H   H4        1.0  0.92140  0.93720  0.09770  1.0000
  C   C3        1.0  0.10960  0.03117  0.70046  1.0000
  C   C4        1.0  0.89040  0.96883  0.29954  1.0000
  H   H5        1.0  0.05960  0.10190  0.73170  1.0000
  H   H6        1.0  0.94040  0.89810  0.26830  1.0000
  H   H7        1.0  0.99940  0.96690  0.64600  1.0000
  H   H8        1.0  0.00060  0.03310  0.35400  1.0000
  C   C5        1.0  0.25810  0.09627  0.63776  1.0000
  C   C6        1.0  0.74190  0.90373  0.36224  1.0000
  C   C7        1.0  0.08130  0.81105  0.77421  1.0000
  C   C8        1.0  0.91870  0.18895  0.22579  1.0000
  H   H9        1.0  0.94150  0.79980  0.74210  1.0000
  H   H10       1.0  0.05850  0.20020  0.25790  1.0000
  H   H11       1.0  0.09700  0.77290  0.84620  1.0000
  H   H12       1.0  0.90300  0.22710  0.15380  1.0000
  C   C9        1.0  0.16230  0.73472  0.69158  1.0000
  C   C10       1.0  0.83770  0.26528  0.30842  1.0000
  Co  Co1       1.0  0.50000  0.50000  0.00000  1.0000
  N   N3        1.0  0.19390  0.50640  0.99665  1.0000
  N   N4        1.0  0.80610  0.49360  0.00335  1.0000
  O   O17       1.0  0.47630  0.56113  0.83634  1.0000
  O   O18       1.0  0.52370  0.43887  0.16366  1.0000
  H   H13       1.0  0.50200  0.64560  0.83900  1.0000
  H   H14       1.0  0.49800  0.35440  0.16100  1.0000
  H   H15       1.0  0.44800  0.52200  0.76980  1.0000
  H   H16       1.0  0.55200  0.47800  0.23020  1.0000
  C   C11       1.0  0.03970  0.43240  0.91448  1.0000
  C   C12       1.0  0.96030  0.56760  0.08552  1.0000
  H   H17       1.0  0.06210  0.38360  0.85320  1.0000
  H   H18       1.0  0.93790  0.61640  0.14680  1.0000
  C   C13       1.0  0.15260  0.57413  0.08241  1.0000
  C   C14       1.0  0.84740  0.42587  0.91759  1.0000
  H   H19       1.0  0.25590  0.62710  0.14160  1.0000
  H   H20       1.0  0.74410  0.37290  0.85840  1.0000
