data_image0
_chemical_formula_structural       Zn16C24H8C16H8C8H8C16H8C16H8C16H8C40H8C16H8C8H8C16H8C16H8C16H8C16N16O96
_chemical_formula_sum              "Zn16 C224 H96 N16 O96"
_cell_length_a       25.386
_cell_length_b       25.15
_cell_length_c       17.6282
_cell_angle_alpha    90
_cell_angle_beta     114.178
_cell_angle_gamma    90

_space_group_name_H-M_alt    "P 1"
_space_group_IT_number       1

loop_
  _space_group_symop_operation_xyz
  'x, y, z'

loop_
  _atom_site_type_symbol
  _atom_site_label
  _atom_site_symmetry_multiplicity
  _atom_site_fract_x
  _atom_site_fract_y
  _atom_site_fract_z
  _atom_site_occupancy
  Zn  Zn1       1.0  0.74825  0.14361  0.24273  1.0000
  Zn  Zn2       1.0  0.25175  0.14361  0.25727  1.0000
  Zn  Zn3       1.0  0.24825  0.64361  0.24273  1.0000
  Zn  Zn4       1.0  0.75175  0.64361  0.25727  1.0000
  Zn  Zn5       1.0  0.25175  0.85639  0.75727  1.0000
  Zn  Zn6       1.0  0.74825  0.85639  0.74273  1.0000
  Zn  Zn7       1.0  0.75175  0.35639  0.75727  1.0000
  Zn  Zn8       1.0  0.24825  0.35639  0.74273  1.0000
  Zn  Zn9       1.0  0.00000  0.44679  0.25000  1.0000
  Zn  Zn10      1.0  0.50000  0.94679  0.25000  1.0000
  Zn  Zn11      1.0  0.00000  0.55321  0.75000  1.0000
  Zn  Zn12      1.0  0.50000  0.05321  0.75000  1.0000
  Zn  Zn13      1.0  0.00000  0.15772  0.75000  1.0000
  Zn  Zn14      1.0  0.50000  0.65772  0.75000  1.0000
  Zn  Zn15      1.0  1.00000  0.84228  0.25000  1.0000
  Zn  Zn16      1.0  0.50000  0.34228  0.25000  1.0000
  C   C1        1.0  0.15720  0.29230  0.71430  1.0000
  C   C2        1.0  0.84280  0.29230  0.78570  1.0000
  C   C3        1.0  0.65720  0.79230  0.71430  1.0000
  C   C4        1.0  0.34280  0.79230  0.78570  1.0000
  C   C5        1.0  0.84280  0.70770  0.28570  1.0000
  C   C6        1.0  0.15720  0.70770  0.21430  1.0000
  C   C7        1.0  0.34280  0.20770  0.28570  1.0000
  C   C8        1.0  0.65720  0.20770  0.21430  1.0000
  C   C9        1.0  0.09650  0.26780  0.67020  1.0000
  C   C10       1.0  0.90350  0.26780  0.82980  1.0000
  C   C11       1.0  0.59650  0.76780  0.67020  1.0000
  C   C12       1.0  0.40350  0.76780  0.82980  1.0000
  C   C13       1.0  0.90350  0.73220  0.32980  1.0000
  C   C14       1.0  0.09650  0.73220  0.17020  1.0000
  C   C15       1.0  0.40350  0.23220  0.32980  1.0000
  C   C16       1.0  0.59650  0.23220  0.17020  1.0000
  C   C17       1.0  0.06010  0.28200  0.59000  1.0000
  C   C18       1.0  0.93990  0.28200  0.91000  1.0000
  C   C19       1.0  0.56010  0.78200  0.59000  1.0000
  C   C20       1.0  0.43990  0.78200  0.91000  1.0000
  C   C21       1.0  0.93990  0.71800  0.41000  1.0000
  C   C22       1.0  0.06010  0.71800  0.09000  1.0000
  C   C23       1.0  0.43990  0.21800  0.41000  1.0000
  C   C24       1.0  0.56010  0.21800  0.09000  1.0000
  H   H1        1.0  0.07236  0.30620  0.55921  1.0000
  H   H2        1.0  0.92764  0.30620  0.94079  1.0000
  H   H3        1.0  0.57236  0.80620  0.55921  1.0000
  H   H4        1.0  0.42764  0.80620  0.94079  1.0000
  H   H5        1.0  0.92764  0.69380  0.44079  1.0000
  H   H6        1.0  0.07236  0.69380  0.05921  1.0000
  H   H7        1.0  0.42764  0.19380  0.44079  1.0000
  H   H8        1.0  0.57236  0.19380  0.05921  1.0000
  C   C25       1.0  0.00440  0.25960  0.55510  1.0000
  C   C26       1.0  0.99560  0.25960  0.94490  1.0000
  C   C27       1.0  0.50440  0.75960  0.55510  1.0000
  C   C28       1.0  0.49560  0.75960  0.94490  1.0000
  C   C29       1.0  0.99560  0.74040  0.44490  1.0000
  C   C30       1.0  0.00440  0.74040  0.05510  1.0000
  C   C31       1.0  0.49560  0.24040  0.44490  1.0000
  C   C32       1.0  0.50440  0.24040  0.05510  1.0000
  C   C33       1.0  0.98970  0.22570  0.60400  1.0000
  C   C34       1.0  0.01030  0.22570  0.89600  1.0000
  C   C35       1.0  0.48970  0.72570  0.60400  1.0000
  C   C36       1.0  0.51030  0.72570  0.89600  1.0000
  C   C37       1.0  0.01030  0.77430  0.39600  1.0000
  C   C38       1.0  0.98970  0.77430  0.10400  1.0000
  C   C39       1.0  0.51030  0.27430  0.39600  1.0000
  C   C40       1.0  0.48970  0.27430  0.10400  1.0000
  H   H9        1.0  0.95182  0.21126  0.58122  1.0000
  H   H10       1.0  0.04818  0.21126  0.91878  1.0000
  H   H11       1.0  0.45182  0.71126  0.58122  1.0000
  H   H12       1.0  0.54818  0.71126  0.91878  1.0000
  H   H13       1.0  0.04818  0.78874  0.41878  1.0000
  H   H14       1.0  0.95182  0.78874  0.08122  1.0000
  H   H15       1.0  0.54818  0.28874  0.41878  1.0000
  H   H16       1.0  0.45182  0.28874  0.08122  1.0000
  C   C41       1.0  0.07810  0.23250  0.71430  1.0000
  C   C42       1.0  0.92190  0.23250  0.78570  1.0000
  C   C43       1.0  0.57810  0.73250  0.71430  1.0000
  C   C44       1.0  0.42190  0.73250  0.78570  1.0000
  C   C45       1.0  0.92190  0.76750  0.28570  1.0000
  C   C46       1.0  0.07810  0.76750  0.21430  1.0000
  C   C47       1.0  0.42190  0.26750  0.28570  1.0000
  C   C48       1.0  0.57810  0.26750  0.21430  1.0000
  H   H17       1.0  0.10390  0.22318  0.76920  1.0000
  H   H18       1.0  0.89610  0.22318  0.73080  1.0000
  H   H19       1.0  0.60390  0.72318  0.76920  1.0000
  H   H20       1.0  0.39610  0.72318  0.73080  1.0000
  H   H21       1.0  0.89610  0.77682  0.23080  1.0000
  H   H22       1.0  0.10390  0.77682  0.26920  1.0000
  H   H23       1.0  0.39610  0.27682  0.23080  1.0000
  H   H24       1.0  0.60390  0.27682  0.26920  1.0000
  C   C49       1.0  0.96360  0.27160  0.46840  1.0000
  C   C50       1.0  0.03640  0.27160  0.03160  1.0000
  C   C51       1.0  0.46360  0.77160  0.46840  1.0000
  C   C52       1.0  0.53640  0.77160  0.03160  1.0000
  C   C53       1.0  0.03640  0.72840  0.53160  1.0000
  C   C54       1.0  0.96360  0.72840  0.96840  1.0000
  C   C55       1.0  0.53640  0.22840  0.53160  1.0000
  C   C56       1.0  0.46360  0.22840  0.96840  1.0000
  C   C57       1.0  0.91590  0.23800  0.42700  1.0000
  C   C58       1.0  0.08410  0.23800  0.07300  1.0000
  C   C59       1.0  0.41590  0.73800  0.42700  1.0000
  C   C60       1.0  0.58410  0.73800  0.07300  1.0000
  C   C61       1.0  0.08410  0.76200  0.57300  1.0000
  C   C62       1.0  0.91590  0.76200  0.92700  1.0000
  C   C63       1.0  0.58410  0.26200  0.57300  1.0000
  C   C64       1.0  0.41590  0.26200  0.92700  1.0000
  H   H25       1.0  0.90999  0.20816  0.45572  1.0000
  H   H26       1.0  0.09001  0.20816  0.04428  1.0000
  H   H27       1.0  0.40999  0.70816  0.45572  1.0000
  H   H28       1.0  0.59001  0.70816  0.04428  1.0000
  H   H29       1.0  0.09001  0.79184  0.54428  1.0000
  H   H30       1.0  0.90999  0.79184  0.95572  1.0000
  H   H31       1.0  0.59001  0.29184  0.54428  1.0000
  H   H32       1.0  0.40999  0.29184  0.95572  1.0000
  C   C65       1.0  0.87730  0.24740  0.34510  1.0000
  C   C66       1.0  0.12270  0.24740  0.15490  1.0000
  C   C67       1.0  0.37730  0.74740  0.34510  1.0000
  C   C68       1.0  0.62270  0.74740  0.15490  1.0000
  C   C69       1.0  0.12270  0.75260  0.65490  1.0000
  C   C70       1.0  0.87730  0.75260  0.84510  1.0000
  C   C71       1.0  0.62270  0.25260  0.65490  1.0000
  C   C72       1.0  0.37730  0.25260  0.84510  1.0000
  C   C73       1.0  0.88620  0.29030  0.30400  1.0000
  C   C74       1.0  0.11380  0.29030  0.19600  1.0000
  C   C75       1.0  0.38620  0.79030  0.30400  1.0000
  C   C76       1.0  0.61380  0.79030  0.19600  1.0000
  C   C77       1.0  0.11380  0.70970  0.69600  1.0000
  C   C78       1.0  0.88620  0.70970  0.80400  1.0000
  C   C79       1.0  0.61380  0.20970  0.69600  1.0000
  C   C80       1.0  0.38620  0.20970  0.80400  1.0000
  H   H33       1.0  0.86033  0.29647  0.24785  1.0000
  H   H34       1.0  0.13967  0.29647  0.25215  1.0000
  H   H35       1.0  0.36033  0.79647  0.24785  1.0000
  H   H36       1.0  0.63967  0.79647  0.25215  1.0000
  H   H37       1.0  0.13967  0.70353  0.75215  1.0000
  H   H38       1.0  0.86033  0.70353  0.74785  1.0000
  H   H39       1.0  0.63967  0.20353  0.75215  1.0000
  H   H40       1.0  0.36033  0.20353  0.74785  1.0000
  C   C81       1.0  0.93200  0.32480  0.34210  1.0000
  C   C82       1.0  0.06800  0.32480  0.15790  1.0000
  C   C83       1.0  0.43200  0.82480  0.34210  1.0000
  C   C84       1.0  0.56800  0.82480  0.15790  1.0000
  C   C85       1.0  0.06800  0.67520  0.65790  1.0000
  C   C86       1.0  0.93200  0.67520  0.84210  1.0000
  C   C87       1.0  0.56800  0.17520  0.65790  1.0000
  C   C88       1.0  0.43200  0.17520  0.84210  1.0000
  C   C89       1.0  0.97040  0.31490  0.42540  1.0000
  C   C90       1.0  0.02960  0.31490  0.07460  1.0000
  C   C91       1.0  0.47040  0.81490  0.42540  1.0000
  C   C92       1.0  0.52960  0.81490  0.07460  1.0000
  C   C93       1.0  0.02960  0.68510  0.57460  1.0000
  C   C94       1.0  0.97040  0.68510  0.92540  1.0000
  C   C95       1.0  0.52960  0.18510  0.57460  1.0000
  C   C96       1.0  0.47040  0.18510  0.92540  1.0000
  H   H41       1.0  0.00168  0.33863  0.45240  1.0000
  H   H42       1.0  0.99832  0.33863  0.04760  1.0000
  H   H43       1.0  0.50168  0.83863  0.45240  1.0000
  H   H44       1.0  0.49832  0.83863  0.04760  1.0000
  H   H45       1.0  0.99832  0.66137  0.54760  1.0000
  H   H46       1.0  0.00168  0.66137  0.95240  1.0000
  H   H47       1.0  0.49832  0.16137  0.54760  1.0000
  H   H48       1.0  0.50168  0.16137  0.95240  1.0000
  C   C97       1.0  0.82890  0.20970  0.30200  1.0000
  C   C98       1.0  0.17110  0.20970  0.19800  1.0000
  C   C99       1.0  0.32890  0.70970  0.30200  1.0000
  C   C100      1.0  0.67110  0.70970  0.19800  1.0000
  C   C101      1.0  0.17110  0.79030  0.69800  1.0000
  C   C102      1.0  0.82890  0.79030  0.80200  1.0000
  C   C103      1.0  0.67110  0.29030  0.69800  1.0000
  C   C104      1.0  0.32890  0.29030  0.80200  1.0000
  C   C105      1.0  0.94100  0.37040  0.29430  1.0000
  C   C106      1.0  0.05900  0.37040  0.20570  1.0000
  C   C107      1.0  0.44100  0.87040  0.29430  1.0000
  C   C108      1.0  0.55900  0.87040  0.20570  1.0000
  C   C109      1.0  0.05900  0.62960  0.70570  1.0000
  C   C110      1.0  0.94100  0.62960  0.79430  1.0000
  C   C111      1.0  0.55900  0.12960  0.70570  1.0000
  C   C112      1.0  0.44100  0.12960  0.79430  1.0000
  C   C113      1.0  0.58750  0.01250  0.27880  1.0000
  C   C114      1.0  0.41250  0.01250  0.22120  1.0000
  C   C115      1.0  0.08750  0.51250  0.27880  1.0000
  C   C116      1.0  0.91250  0.51250  0.22120  1.0000
  C   C117      1.0  0.41250  0.98750  0.72120  1.0000
  C   C118      1.0  0.58750  0.98750  0.77880  1.0000
  C   C119      1.0  0.91250  0.48750  0.72120  1.0000
  C   C120      1.0  0.08750  0.48750  0.77880  1.0000
  C   C121      1.0  0.64680  0.03870  0.32220  1.0000
  C   C122      1.0  0.35320  0.03870  0.17780  1.0000
  C   C123      1.0  0.14680  0.53870  0.32220  1.0000
  C   C124      1.0  0.85320  0.53870  0.17780  1.0000
  C   C125      1.0  0.35320  0.96130  0.67780  1.0000
  C   C126      1.0  0.64680  0.96130  0.82220  1.0000
  C   C127      1.0  0.85320  0.46130  0.67780  1.0000
  C   C128      1.0  0.14680  0.46130  0.82220  1.0000
  C   C129      1.0  0.68010  0.02940  0.40590  1.0000
  C   C130      1.0  0.31990  0.02940  0.09410  1.0000
  C   C131      1.0  0.18010  0.52940  0.40590  1.0000
  C   C132      1.0  0.81990  0.52940  0.09410  1.0000
  C   C133      1.0  0.31990  0.97060  0.59410  1.0000
  C   C134      1.0  0.68010  0.97060  0.90590  1.0000
  C   C135      1.0  0.81990  0.47060  0.59410  1.0000
  C   C136      1.0  0.18010  0.47060  0.90590  1.0000
  H   H49       1.0  0.66537  0.00900  0.43831  1.0000
  H   H50       1.0  0.33463  0.00900  0.06169  1.0000
  H   H51       1.0  0.16537  0.50900  0.43831  1.0000
  H   H52       1.0  0.83463  0.50900  0.06169  1.0000
  H   H53       1.0  0.33463  0.99100  0.56169  1.0000
  H   H54       1.0  0.66537  0.99100  0.93831  1.0000
  H   H55       1.0  0.83463  0.49100  0.56169  1.0000
  H   H56       1.0  0.16537  0.49100  0.93831  1.0000
  C   C137      1.0  0.73750  0.05120  0.44260  1.0000
  C   C138      1.0  0.26250  0.05120  0.05740  1.0000
  C   C139      1.0  0.23750  0.55120  0.44260  1.0000
  C   C140      1.0  0.76250  0.55120  0.05740  1.0000
  C   C141      1.0  0.26250  0.94880  0.55740  1.0000
  C   C142      1.0  0.73750  0.94880  0.94260  1.0000
  C   C143      1.0  0.76250  0.44880  0.55740  1.0000
  C   C144      1.0  0.23750  0.44880  0.94260  1.0000
  C   C145      1.0  0.75370  0.08340  0.39370  1.0000
  C   C146      1.0  0.24630  0.08340  0.10630  1.0000
  C   C147      1.0  0.25370  0.58340  0.39370  1.0000
  C   C148      1.0  0.74630  0.58340  0.10630  1.0000
  C   C149      1.0  0.24630  0.91660  0.60630  1.0000
  C   C150      1.0  0.75370  0.91660  0.89370  1.0000
  C   C151      1.0  0.74630  0.41660  0.60630  1.0000
  C   C152      1.0  0.25370  0.41660  0.89370  1.0000
  H   H57       1.0  0.79091  0.09920  0.41743  1.0000
  H   H58       1.0  0.20909  0.09920  0.08257  1.0000
  H   H59       1.0  0.29091  0.59920  0.41743  1.0000
  H   H60       1.0  0.70909  0.59920  0.08257  1.0000
  H   H61       1.0  0.20909  0.90080  0.58257  1.0000
  H   H62       1.0  0.79091  0.90080  0.91743  1.0000
  H   H63       1.0  0.70909  0.40080  0.58257  1.0000
  H   H64       1.0  0.29091  0.40080  0.91743  1.0000
  C   C153      1.0  0.66800  0.07170  0.27940  1.0000
  C   C154      1.0  0.33200  0.07170  0.22060  1.0000
  C   C155      1.0  0.16800  0.57170  0.27940  1.0000
  C   C156      1.0  0.83200  0.57170  0.22060  1.0000
  C   C157      1.0  0.33200  0.92830  0.72060  1.0000
  C   C158      1.0  0.66800  0.92830  0.77940  1.0000
  C   C159      1.0  0.83200  0.42830  0.72060  1.0000
  C   C160      1.0  0.16800  0.42830  0.77940  1.0000
  H   H65       1.0  0.64450  0.07877  0.22258  1.0000
  H   H66       1.0  0.35550  0.07877  0.27742  1.0000
  H   H67       1.0  0.14450  0.57877  0.22258  1.0000
  H   H68       1.0  0.85550  0.57877  0.27742  1.0000
  H   H69       1.0  0.35550  0.92123  0.77742  1.0000
  H   H70       1.0  0.64450  0.92123  0.72258  1.0000
  H   H71       1.0  0.85550  0.42123  0.77742  1.0000
  H   H72       1.0  0.14450  0.42123  0.72258  1.0000
  C   C161      1.0  0.77590  0.04120  0.53270  1.0000
  C   C162      1.0  0.22410  0.04120  0.96730  1.0000
  C   C163      1.0  0.27590  0.54120  0.53270  1.0000
  C   C164      1.0  0.72410  0.54120  0.96730  1.0000
  C   C165      1.0  0.22410  0.95880  0.46730  1.0000
  C   C166      1.0  0.77590  0.95880  0.03270  1.0000
  C   C167      1.0  0.72410  0.45880  0.46730  1.0000
  C   C168      1.0  0.27590  0.45880  0.03270  1.0000
  C   C169      1.0  0.82270  0.07470  0.57300  1.0000
  C   C170      1.0  0.17730  0.07470  0.92700  1.0000
  C   C171      1.0  0.32270  0.57470  0.57300  1.0000
  C   C172      1.0  0.67730  0.57470  0.92700  1.0000
  C   C173      1.0  0.17730  0.92530  0.42700  1.0000
  C   C174      1.0  0.82270  0.92530  0.07300  1.0000
  C   C175      1.0  0.67730  0.42530  0.42700  1.0000
  C   C176      1.0  0.32270  0.42530  0.07300  1.0000
  H   H73       1.0  0.82853  0.10477  0.54471  1.0000
  H   H74       1.0  0.17147  0.10477  0.95529  1.0000
  H   H75       1.0  0.32853  0.60477  0.54471  1.0000
  H   H76       1.0  0.67147  0.60477  0.95529  1.0000
  H   H77       1.0  0.17147  0.89523  0.45529  1.0000
  H   H78       1.0  0.82853  0.89523  0.04471  1.0000
  H   H79       1.0  0.67147  0.39523  0.45529  1.0000
  H   H80       1.0  0.32853  0.39523  0.04471  1.0000
  C   C177      1.0  0.86100  0.06440  0.65470  1.0000
  C   C178      1.0  0.13900  0.06440  0.84530  1.0000
  C   C179      1.0  0.36100  0.56440  0.65470  1.0000
  C   C180      1.0  0.63900  0.56440  0.84530  1.0000
  C   C181      1.0  0.13900  0.93560  0.34530  1.0000
  C   C182      1.0  0.86100  0.93560  0.15470  1.0000
  C   C183      1.0  0.63900  0.43560  0.34530  1.0000
  C   C184      1.0  0.36100  0.43560  0.15470  1.0000
  C   C185      1.0  0.85220  0.02120  0.69600  1.0000
  C   C186      1.0  0.14780  0.02120  0.80400  1.0000
  C   C187      1.0  0.35220  0.52120  0.69600  1.0000
  C   C188      1.0  0.64780  0.52120  0.80400  1.0000
  C   C189      1.0  0.14780  0.97880  0.30400  1.0000
  C   C190      1.0  0.85220  0.97880  0.19600  1.0000
  C   C191      1.0  0.64780  0.47880  0.30400  1.0000
  C   C192      1.0  0.35220  0.47880  0.19600  1.0000
  H   H81       1.0  0.87916  0.01360  0.75103  1.0000
  H   H82       1.0  0.12084  0.01360  0.74897  1.0000
  H   H83       1.0  0.37916  0.51360  0.75103  1.0000
  H   H84       1.0  0.62084  0.51360  0.74897  1.0000
  H   H85       1.0  0.12084  0.98640  0.24897  1.0000
  H   H86       1.0  0.87916  0.98640  0.25103  1.0000
  H   H87       1.0  0.62084  0.48640  0.24897  1.0000
  H   H88       1.0  0.37916  0.48640  0.25103  1.0000
  C   C193      1.0  0.80420  0.98840  0.65810  1.0000
  C   C194      1.0  0.19580  0.98840  0.84190  1.0000
  C   C195      1.0  0.30420  0.48840  0.65810  1.0000
  C   C196      1.0  0.69580  0.48840  0.84190  1.0000
  C   C197      1.0  0.19580  0.01160  0.34190  1.0000
  C   C198      1.0  0.80420  0.01160  0.15810  1.0000
  C   C199      1.0  0.69580  0.51160  0.34190  1.0000
  C   C200      1.0  0.30420  0.51160  0.15810  1.0000
  C   C201      1.0  0.76750  0.99810  0.57370  1.0000
  C   C202      1.0  0.23250  0.99810  0.92630  1.0000
  C   C203      1.0  0.26750  0.49810  0.57370  1.0000
  C   C204      1.0  0.73250  0.49810  0.92630  1.0000
  C   C205      1.0  0.23250  0.00190  0.42630  1.0000
  C   C206      1.0  0.76750  0.00190  0.07370  1.0000
  C   C207      1.0  0.73250  0.50190  0.42630  1.0000
  C   C208      1.0  0.26750  0.50190  0.07370  1.0000
  H   H89       1.0  0.73654  0.97437  0.54524  1.0000
  H   H90       1.0  0.26346  0.97437  0.95476  1.0000
  H   H91       1.0  0.23654  0.47437  0.54524  1.0000
  H   H92       1.0  0.76346  0.47437  0.95476  1.0000
  H   H93       1.0  0.26346  0.02563  0.45476  1.0000
  H   H94       1.0  0.73654  0.02563  0.04524  1.0000
  H   H95       1.0  0.76346  0.52563  0.45476  1.0000
  H   H96       1.0  0.23654  0.52563  0.04524  1.0000
  C   C209      1.0  0.91150  0.10030  0.69570  1.0000
  C   C210      1.0  0.08850  0.10030  0.80430  1.0000
  C   C211      1.0  0.41150  0.60030  0.69570  1.0000
  C   C212      1.0  0.58850  0.60030  0.80430  1.0000
  C   C213      1.0  0.08850  0.89970  0.30430  1.0000
  C   C214      1.0  0.91150  0.89970  0.19570  1.0000
  C   C215      1.0  0.58850  0.39970  0.30430  1.0000
  C   C216      1.0  0.41150  0.39970  0.19570  1.0000
  C   C217      1.0  0.79570  0.94040  0.70300  1.0000
  C   C218      1.0  0.20430  0.94040  0.79700  1.0000
  C   C219      1.0  0.29570  0.44040  0.70300  1.0000
  C   C220      1.0  0.70430  0.44040  0.79700  1.0000
  C   C221      1.0  0.20430  0.05960  0.29700  1.0000
  C   C222      1.0  0.79570  0.05960  0.20300  1.0000
  C   C223      1.0  0.70430  0.55960  0.29700  1.0000
  C   C224      1.0  0.29570  0.55960  0.20300  1.0000
  N   N1        1.0  0.02520  0.21100  0.68250  1.0000
  N   N2        1.0  0.97480  0.21100  0.81750  1.0000
  N   N3        1.0  0.52520  0.71100  0.68250  1.0000
  N   N4        1.0  0.47480  0.71100  0.81750  1.0000
  N   N5        1.0  0.97480  0.78900  0.31750  1.0000
  N   N6        1.0  0.02520  0.78900  0.18250  1.0000
  N   N7        1.0  0.47480  0.28900  0.31750  1.0000
  N   N8        1.0  0.52520  0.28900  0.18250  1.0000
  N   N9        1.0  0.71960  0.09420  0.31320  1.0000
  N   N10       1.0  0.28040  0.09420  0.18680  1.0000
  N   N11       1.0  0.21960  0.59420  0.31320  1.0000
  N   N12       1.0  0.78040  0.59420  0.18680  1.0000
  N   N13       1.0  0.28040  0.90580  0.68680  1.0000
  N   N14       1.0  0.71960  0.90580  0.81320  1.0000
  N   N15       1.0  0.78040  0.40580  0.68680  1.0000
  N   N16       1.0  0.21960  0.40580  0.81320  1.0000
  O   O1        1.0  0.17150  0.32480  0.67150  1.0000
  O   O2        1.0  0.82850  0.32480  0.82850  1.0000
  O   O3        1.0  0.67150  0.82480  0.67150  1.0000
  O   O4        1.0  0.32850  0.82480  0.82850  1.0000
  O   O5        1.0  0.82850  0.67520  0.32850  1.0000
  O   O6        1.0  0.17150  0.67520  0.17150  1.0000
  O   O7        1.0  0.32850  0.17520  0.32850  1.0000
  O   O8        1.0  0.67150  0.17520  0.17150  1.0000
  O   O9        1.0  0.18780  0.27860  0.78500  1.0000
  O   O10       1.0  0.81220  0.27860  0.71500  1.0000
  O   O11       1.0  0.68780  0.77860  0.78500  1.0000
  O   O12       1.0  0.31220  0.77860  0.71500  1.0000
  O   O13       1.0  0.81220  0.72140  0.21500  1.0000
  O   O14       1.0  0.18780  0.72140  0.28500  1.0000
  O   O15       1.0  0.31220  0.22140  0.21500  1.0000
  O   O16       1.0  0.68780  0.22140  0.28500  1.0000
  O   O17       1.0  0.98780  0.39700  0.33030  1.0000
  O   O18       1.0  0.01220  0.39700  0.16970  1.0000
  O   O19       1.0  0.48780  0.89700  0.33030  1.0000
  O   O20       1.0  0.51220  0.89700  0.16970  1.0000
  O   O21       1.0  0.01220  0.60300  0.66970  1.0000
  O   O22       1.0  0.98780  0.60300  0.83030  1.0000
  O   O23       1.0  0.51220  0.10300  0.66970  1.0000
  O   O24       1.0  0.48780  0.10300  0.83030  1.0000
  O   O25       1.0  0.90520  0.37880  0.22490  1.0000
  O   O26       1.0  0.09480  0.37880  0.27510  1.0000
  O   O27       1.0  0.40520  0.87880  0.22490  1.0000
  O   O28       1.0  0.59480  0.87880  0.27510  1.0000
  O   O29       1.0  0.09480  0.62120  0.77510  1.0000
  O   O30       1.0  0.90520  0.62120  0.72490  1.0000
  O   O31       1.0  0.59480  0.12120  0.77510  1.0000
  O   O32       1.0  0.40520  0.12120  0.72490  1.0000
  O   O33       1.0  0.80100  0.21100  0.22530  1.0000
  O   O34       1.0  0.19900  0.21100  0.27470  1.0000
  O   O35       1.0  0.30100  0.71100  0.22530  1.0000
  O   O36       1.0  0.69900  0.71100  0.27470  1.0000
  O   O37       1.0  0.19900  0.78900  0.77470  1.0000
  O   O38       1.0  0.80100  0.78900  0.72530  1.0000
  O   O39       1.0  0.69900  0.28900  0.77470  1.0000
  O   O40       1.0  0.30100  0.28900  0.72530  1.0000
  O   O41       1.0  0.81740  0.17590  0.34710  1.0000
  O   O42       1.0  0.18260  0.17590  0.15290  1.0000
  O   O43       1.0  0.31740  0.67590  0.34710  1.0000
  O   O44       1.0  0.68260  0.67590  0.15290  1.0000
  O   O45       1.0  0.18260  0.82410  0.65290  1.0000
  O   O46       1.0  0.81740  0.82410  0.84710  1.0000
  O   O47       1.0  0.68260  0.32410  0.65290  1.0000
  O   O48       1.0  0.31740  0.32410  0.84710  1.0000
  O   O49       1.0  0.56830  0.98770  0.32570  1.0000
  O   O50       1.0  0.43170  0.98770  0.17430  1.0000
  O   O51       1.0  0.06830  0.48770  0.32570  1.0000
  O   O52       1.0  0.93170  0.48770  0.17430  1.0000
  O   O53       1.0  0.43170  0.01230  0.67430  1.0000
  O   O54       1.0  0.56830  0.01230  0.82570  1.0000
  O   O55       1.0  0.93170  0.51230  0.67430  1.0000
  O   O56       1.0  0.06830  0.51230  0.82570  1.0000
  O   O57       1.0  0.56340  0.01680  0.20180  1.0000
  O   O58       1.0  0.43660  0.01680  0.29820  1.0000
  O   O59       1.0  0.06340  0.51680  0.20180  1.0000
  O   O60       1.0  0.93660  0.51680  0.29820  1.0000
  O   O61       1.0  0.43660  0.98320  0.79820  1.0000
  O   O62       1.0  0.56340  0.98320  0.70180  1.0000
  O   O63       1.0  0.93660  0.48320  0.79820  1.0000
  O   O64       1.0  0.06340  0.48320  0.70180  1.0000
  O   O65       1.0  0.75480  0.90960  0.66320  1.0000
  O   O66       1.0  0.24520  0.90960  0.83680  1.0000
  O   O67       1.0  0.25480  0.40960  0.66320  1.0000
  O   O68       1.0  0.74520  0.40960  0.83680  1.0000
  O   O69       1.0  0.24520  0.09040  0.33680  1.0000
  O   O70       1.0  0.75480  0.09040  0.16320  1.0000
  O   O71       1.0  0.74520  0.59040  0.33680  1.0000
  O   O72       1.0  0.25480  0.59040  0.16320  1.0000
  O   O73       1.0  0.82880  0.93440  0.77640  1.0000
  O   O74       1.0  0.17120  0.93440  0.72360  1.0000
  O   O75       1.0  0.32880  0.43440  0.77640  1.0000
  O   O76       1.0  0.67120  0.43440  0.72360  1.0000
  O   O77       1.0  0.17120  0.06560  0.22360  1.0000
  O   O78       1.0  0.82880  0.06560  0.27640  1.0000
  O   O79       1.0  0.67120  0.56560  0.22360  1.0000
  O   O80       1.0  0.32880  0.56560  0.27640  1.0000
  O   O81       1.0  0.94680  0.09080  0.77010  1.0000
  O   O82       1.0  0.05320  0.09080  0.72990  1.0000
  O   O83       1.0  0.44680  0.59080  0.77010  1.0000
  O   O84       1.0  0.55320  0.59080  0.72990  1.0000
  O   O85       1.0  0.05320  0.90920  0.22990  1.0000
  O   O86       1.0  0.94680  0.90920  0.27010  1.0000
  O   O87       1.0  0.55320  0.40920  0.22990  1.0000
  O   O88       1.0  0.44680  0.40920  0.27010  1.0000
  O   O89       1.0  0.92040  0.13850  0.65460  1.0000
  O   O90       1.0  0.07960  0.13850  0.84540  1.0000
  O   O91       1.0  0.42040  0.63850  0.65460  1.0000
  O   O92       1.0  0.57960  0.63850  0.84540  1.0000
  O   O93       1.0  0.07960  0.86150  0.34540  1.0000
  O   O94       1.0  0.92040  0.86150  0.15460  1.0000
  O   O95       1.0  0.57960  0.36150  0.34540  1.0000
  O   O96       1.0  0.42040  0.36150  0.15460  1.0000
