data_image0
_chemical_formula_structural       Zn2O8C4H2C6O6H2O2C6H2C4
_chemical_formula_sum              "Zn2 O16 C20 H6"
_cell_length_a       8.1341
_cell_length_b       9.415
_cell_length_c       12.7337
_cell_angle_alpha    78.488
_cell_angle_beta     84.69
_cell_angle_gamma    70.674

_space_group_name_H-M_alt    "P 1"
_space_group_IT_number       1

loop_
  _space_group_symop_operation_xyz
  'x, y, z'

loop_
  _atom_site_type_symbol
  _atom_site_label
  _atom_site_symmetry_multiplicity
  _atom_site_fract_x
  _atom_site_fract_y
  _atom_site_fract_z
  _atom_site_occupancy
  Zn  Zn1       1.0  0.64028  0.58843  0.06698  1.0000
  Zn  Zn2       1.0  0.35972  0.41157  0.93302  1.0000
  O   O1        1.0  0.42790  0.71370  0.98790  1.0000
  O   O2        1.0  0.57210  0.28630  0.01210  1.0000
  O   O3        1.0  0.22860  0.59640  0.99320  1.0000
  O   O4        1.0  0.77140  0.40360  0.00680  1.0000
  O   O5        1.0  0.04700  0.36280  0.84150  1.0000
  O   O6        1.0  0.95300  0.63720  0.15850  1.0000
  O   O7        1.0  0.21610  0.28250  0.98310  1.0000
  O   O8        1.0  0.78390  0.71750  0.01690  1.0000
  C   C1        1.0  0.13120  0.85820  0.00270  1.0000
  C   C2        1.0  0.86880  0.14180  0.99730  1.0000
  C   C3        1.0  0.16910  0.99520  0.97140  1.0000
  C   C4        1.0  0.83090  0.00480  0.02860  1.0000
  H   H1        1.0  0.28360  0.99140  0.95280  1.0000
  H   H2        1.0  0.71640  0.00860  0.04720  1.0000
  C   C5        1.0  0.04130  0.13650  0.96710  1.0000
  C   C6        1.0  0.95870  0.86350  0.03290  1.0000
  C   C7        1.0  0.27340  0.71000  0.99590  1.0000
  C   C8        1.0  0.72660  0.29000  0.00410  1.0000
  C   C9        1.0  0.09990  0.27540  0.92600  1.0000
  C   C10       1.0  0.90010  0.72460  0.07400  1.0000
  O   O9        1.0  0.58110  0.51570  0.21380  1.0000
  O   O10       1.0  0.41890  0.48430  0.78620  1.0000
  O   O11       1.0  0.53220  0.75220  0.24140  1.0000
  O   O12       1.0  0.46780  0.24780  0.75860  1.0000
  O   O13       1.0  0.19500  0.62940  0.28080  1.0000
  O   O14       1.0  0.80500  0.37060  0.71920  1.0000
  H   H3        1.0  0.11790  0.62520  0.24550  1.0000
  H   H4        1.0  0.88210  0.37480  0.75450  1.0000
  O   O15       1.0  0.15550  0.42260  0.37880  1.0000
  O   O16       1.0  0.84450  0.57740  0.62120  1.0000
  C   C11       1.0  0.51430  0.55870  0.39060  1.0000
  C   C12       1.0  0.48570  0.44130  0.60940  1.0000
  C   C13       1.0  0.37240  0.50930  0.43030  1.0000
  C   C14       1.0  0.62760  0.49070  0.56970  1.0000
  C   C15       1.0  0.63950  0.54840  0.46070  1.0000
  C   C16       1.0  0.36050  0.45160  0.53930  1.0000
  H   H5        1.0  0.73410  0.58090  0.43440  1.0000
  H   H6        1.0  0.26590  0.41910  0.56560  1.0000
  C   C17       1.0  0.54180  0.61830  0.27260  1.0000
  C   C18       1.0  0.45820  0.38170  0.72740  1.0000
  C   C19       1.0  0.23010  0.51590  0.35950  1.0000
  C   C20       1.0  0.76990  0.48410  0.64050  1.0000
