data_image0
_chemical_formula_structural       Sn4N4O24C8H4C8H4C8H4C12H12C4H12C4H12
_chemical_formula_sum              "Sn4 N4 O24 C44 H48"
_cell_length_a       7.437
_cell_length_b       20.691
_cell_length_c       13.607
_cell_angle_alpha    90
_cell_angle_beta     99.07
_cell_angle_gamma    90

_space_group_name_H-M_alt    "P 1"
_space_group_IT_number       1

loop_
  _space_group_symop_operation_xyz
  'x, y, z'

loop_
  _atom_site_type_symbol
  _atom_site_label
  _atom_site_symmetry_multiplicity
  _atom_site_fract_x
  _atom_site_fract_y
  _atom_site_fract_z
  _atom_site_occupancy
  Sn  Sn1       1.0  0.63886  0.16765  0.24667  1.0000
  Sn  Sn2       1.0  0.86114  0.66765  0.25333  1.0000
  Sn  Sn3       1.0  0.36114  0.83235  0.75333  1.0000
  Sn  Sn4       1.0  0.13886  0.33235  0.74667  1.0000
  N   N1        1.0  0.66100  0.47140  0.61480  1.0000
  N   N2        1.0  0.83900  0.97140  0.88520  1.0000
  N   N3        1.0  0.33900  0.52860  0.38520  1.0000
  N   N4        1.0  0.16100  0.02860  0.11480  1.0000
  O   O1        1.0  0.67750  0.27097  0.29400  1.0000
  O   O2        1.0  0.82250  0.77097  0.20600  1.0000
  O   O3        1.0  0.32250  0.72903  0.70600  1.0000
  O   O4        1.0  0.17750  0.22903  0.79400  1.0000
  O   O5        1.0  0.64480  0.25007  0.45120  1.0000
  O   O6        1.0  0.85520  0.75007  0.04880  1.0000
  O   O7        1.0  0.35520  0.74993  0.54880  1.0000
  O   O8        1.0  0.14480  0.24993  0.95120  1.0000
  O   O9        1.0  0.89260  0.56687  0.32200  1.0000
  O   O10       1.0  0.60740  0.06687  0.17800  1.0000
  O   O11       1.0  0.10740  0.43313  0.67800  1.0000
  O   O12       1.0  0.39260  0.93313  0.82200  1.0000
  O   O13       1.0  0.90880  0.48740  0.21270  1.0000
  O   O14       1.0  0.59120  0.98740  0.28730  1.0000
  O   O15       1.0  0.09120  0.51260  0.78730  1.0000
  O   O16       1.0  0.40880  0.01260  0.71270  1.0000
  O   O17       1.0  0.70860  0.52651  0.63820  1.0000
  O   O18       1.0  0.79140  0.02651  0.86180  1.0000
  O   O19       1.0  0.29140  0.47349  0.36180  1.0000
  O   O20       1.0  0.20860  0.97349  0.13820  1.0000
  O   O21       1.0  0.57850  0.43710  0.66580  1.0000
  O   O22       1.0  0.92150  0.93710  0.83420  1.0000
  O   O23       1.0  0.42150  0.56290  0.33420  1.0000
  O   O24       1.0  0.07850  0.06290  0.16580  1.0000
  C   C1        1.0  0.70000  0.35790  0.40820  1.0000
  C   C2        1.0  0.80000  0.85790  0.09180  1.0000
  C   C3        1.0  0.30000  0.64210  0.59180  1.0000
  C   C4        1.0  0.20000  0.14210  0.90820  1.0000
  C   C5        1.0  0.76250  0.40000  0.34120  1.0000
  C   C6        1.0  0.73750  0.90000  0.15880  1.0000
  C   C7        1.0  0.23750  0.60000  0.65880  1.0000
  C   C8        1.0  0.26250  0.10000  0.84120  1.0000
  H   H1        1.0  0.77910  0.38450  0.27910  1.0000
  H   H2        1.0  0.72090  0.88450  0.22090  1.0000
  H   H3        1.0  0.22090  0.61550  0.72090  1.0000
  H   H4        1.0  0.27910  0.11550  0.77910  1.0000
  C   C9        1.0  0.80040  0.46390  0.36430  1.0000
  C   C10       1.0  0.69960  0.96390  0.13570  1.0000
  C   C11       1.0  0.19960  0.53610  0.63570  1.0000
  C   C12       1.0  0.30040  0.03610  0.86430  1.0000
  C   C13       1.0  0.77020  0.48750  0.45730  1.0000
  C   C14       1.0  0.72980  0.98750  0.04270  1.0000
  C   C15       1.0  0.22980  0.51250  0.54270  1.0000
  C   C16       1.0  0.27020  0.01250  0.95730  1.0000
  H   H5        1.0  0.79620  0.53020  0.47550  1.0000
  H   H6        1.0  0.70380  0.03020  0.02450  1.0000
  H   H7        1.0  0.20380  0.46980  0.52450  1.0000
  H   H8        1.0  0.29620  0.96980  0.97550  1.0000
  C   C17       1.0  0.70120  0.44580  0.52050  1.0000
  C   C18       1.0  0.79880  0.94580  0.97950  1.0000
  C   C19       1.0  0.29880  0.55420  0.47950  1.0000
  C   C20       1.0  0.20120  0.05420  0.02050  1.0000
  C   C21       1.0  0.66880  0.38110  0.49910  1.0000
  C   C22       1.0  0.83120  0.88110  0.00090  1.0000
  C   C23       1.0  0.33120  0.61890  0.50090  1.0000
  C   C24       1.0  0.16880  0.11890  0.99910  1.0000
  H   H9        1.0  0.62680  0.35380  0.54490  1.0000
  H   H10       1.0  0.87320  0.85380  0.95510  1.0000
  H   H11       1.0  0.37320  0.64620  0.45510  1.0000
  H   H12       1.0  0.12680  0.14620  0.04490  1.0000
  C   C25       1.0  0.67060  0.28700  0.38440  1.0000
  C   C26       1.0  0.82940  0.78700  0.11560  1.0000
  C   C27       1.0  0.32940  0.71300  0.61560  1.0000
  C   C28       1.0  0.17060  0.21300  0.88440  1.0000
  C   C29       1.0  0.87430  0.50910  0.29270  1.0000
  C   C30       1.0  0.62570  0.00910  0.20730  1.0000
  C   C31       1.0  0.12570  0.49090  0.70730  1.0000
  C   C32       1.0  0.37430  0.99090  0.79270  1.0000
  C   C33       1.0  0.65800  0.19690  0.09940  1.0000
  C   C34       1.0  0.84200  0.69690  0.40060  1.0000
  C   C35       1.0  0.34200  0.80310  0.90060  1.0000
  C   C36       1.0  0.15800  0.30310  0.59940  1.0000
  H   H13       1.0  0.53980  0.20930  0.06590  1.0000
  H   H14       1.0  0.96020  0.70930  0.43410  1.0000
  H   H15       1.0  0.46020  0.79070  0.93410  1.0000
  H   H16       1.0  0.03980  0.29070  0.56590  1.0000
  H   H17       1.0  0.70320  0.16160  0.06440  1.0000
  H   H18       1.0  0.79680  0.66160  0.43560  1.0000
  H   H19       1.0  0.29680  0.83840  0.93560  1.0000
  H   H20       1.0  0.20320  0.33840  0.56440  1.0000
  H   H21       1.0  0.73980  0.23290  0.10130  1.0000
  H   H22       1.0  0.76020  0.73290  0.39870  1.0000
  H   H23       1.0  0.26020  0.76710  0.89870  1.0000
  H   H24       1.0  0.23980  0.26710  0.60130  1.0000
  C   C37       1.0  0.37490  0.16140  0.28360  1.0000
  C   C38       1.0  0.12510  0.66140  0.21640  1.0000
  C   C39       1.0  0.62510  0.83860  0.71640  1.0000
  C   C40       1.0  0.87490  0.33860  0.78360  1.0000
  H   H25       1.0  0.28830  0.17790  0.22960  1.0000
  H   H26       1.0  0.21170  0.67790  0.27040  1.0000
  H   H27       1.0  0.71170  0.82210  0.77040  1.0000
  H   H28       1.0  0.78830  0.32210  0.72960  1.0000
  H   H29       1.0  0.36890  0.18640  0.34240  1.0000
  H   H30       1.0  0.13110  0.68640  0.15760  1.0000
  H   H31       1.0  0.63110  0.81360  0.65760  1.0000
  H   H32       1.0  0.86890  0.31360  0.84240  1.0000
  H   H33       1.0  0.34710  0.11710  0.29570  1.0000
  H   H34       1.0  0.15290  0.61710  0.20430  1.0000
  H   H35       1.0  0.65290  0.88290  0.70430  1.0000
  H   H36       1.0  0.84710  0.38290  0.79570  1.0000
  C   C41       1.0  0.87250  0.13670  0.34430  1.0000
  C   C42       1.0  0.62750  0.63670  0.15570  1.0000
  C   C43       1.0  0.12750  0.86330  0.65570  1.0000
  C   C44       1.0  0.37250  0.36330  0.84430  1.0000
  H   H37       1.0  0.97860  0.14340  0.31350  1.0000
  H   H38       1.0  0.52140  0.64340  0.18650  1.0000
  H   H39       1.0  0.02140  0.85660  0.68650  1.0000
  H   H40       1.0  0.47860  0.35660  0.81350  1.0000
  H   H41       1.0  0.86130  0.09150  0.35860  1.0000
  H   H42       1.0  0.63870  0.59150  0.14140  1.0000
  H   H43       1.0  0.13870  0.90850  0.64140  1.0000
  H   H44       1.0  0.36130  0.40850  0.85860  1.0000
  H   H45       1.0  0.88370  0.16100  0.40500  1.0000
  H   H46       1.0  0.61630  0.66100  0.09500  1.0000
  H   H47       1.0  0.11630  0.83900  0.59500  1.0000
  H   H48       1.0  0.38370  0.33900  0.90500  1.0000
