data_image0
_chemical_formula_structural       V4Na4N4O40C12H4C4H4C28H4C4H4C4H4C4H4C12H4C4H4C28H4C4H4C4H4C4H4C4H4C4H12C4H12
_chemical_formula_sum              "V4 Na4 N4 O40 C124 H76"
_cell_length_a       10.068
_cell_length_b       12.8419
_cell_length_c       29.029
_cell_angle_alpha    90
_cell_angle_beta     106.212
_cell_angle_gamma    90

_space_group_name_H-M_alt    "P 1"
_space_group_IT_number       1

loop_
  _space_group_symop_operation_xyz
  'x, y, z'

loop_
  _atom_site_type_symbol
  _atom_site_label
  _atom_site_symmetry_multiplicity
  _atom_site_fract_x
  _atom_site_fract_y
  _atom_site_fract_z
  _atom_site_occupancy
  V   V1        1.0  0.81273  0.59756  0.66961  1.0000
  V   V2        1.0  0.18727  0.09756  0.83039  1.0000
  V   V3        1.0  0.18727  0.40244  0.33039  1.0000
  V   V4        1.0  0.81273  0.90244  0.16961  1.0000
  Na  Na1       1.0  0.45690  0.64770  0.62984  1.0000
  Na  Na2       1.0  0.54310  0.14770  0.87016  1.0000
  Na  Na3       1.0  0.54310  0.35230  0.37016  1.0000
  Na  Na4       1.0  0.45690  0.85230  0.12984  1.0000
  N   N1        1.0  0.01590  0.76130  0.56800  1.0000
  N   N2        1.0  0.98410  0.26130  0.93200  1.0000
  N   N3        1.0  0.98410  0.23870  0.43200  1.0000
  N   N4        1.0  0.01590  0.73870  0.06800  1.0000
  O   O1        1.0  0.67430  0.63480  0.61014  1.0000
  O   O2        1.0  0.32570  0.13480  0.88986  1.0000
  O   O3        1.0  0.32570  0.36520  0.38986  1.0000
  O   O4        1.0  0.67430  0.86520  0.11014  1.0000
  O   O5        1.0  0.89670  0.53290  0.62426  1.0000
  O   O6        1.0  0.10330  0.03290  0.87574  1.0000
  O   O7        1.0  0.10330  0.46710  0.37574  1.0000
  O   O8        1.0  0.89670  0.96710  0.12426  1.0000
  O   O9        1.0  0.44020  0.70560  0.54740  1.0000
  O   O10       1.0  0.55980  0.20560  0.95260  1.0000
  O   O11       1.0  0.55980  0.29440  0.45260  1.0000
  O   O12       1.0  0.44020  0.79440  0.04740  1.0000
  O   O13       1.0  0.58810  0.52060  0.40440  1.0000
  O   O14       1.0  0.41190  0.02060  0.09560  1.0000
  O   O15       1.0  0.41190  0.47940  0.59560  1.0000
  O   O16       1.0  0.58810  0.97940  0.90440  1.0000
  O   O17       1.0  0.65380  0.58760  0.69510  1.0000
  O   O18       1.0  0.34620  0.08760  0.80490  1.0000
  O   O19       1.0  0.34620  0.41240  0.30490  1.0000
  O   O20       1.0  0.65380  0.91240  0.19510  1.0000
  O   O21       1.0  0.86940  0.47630  0.71080  1.0000
  O   O22       1.0  0.13060  0.97630  0.78920  1.0000
  O   O23       1.0  0.13060  0.52370  0.28920  1.0000
  O   O24       1.0  0.86940  0.02370  0.21080  1.0000
  O   O25       1.0  0.39500  0.60710  0.70530  1.0000
  O   O26       1.0  0.60500  0.10710  0.79470  1.0000
  O   O27       1.0  0.60500  0.39290  0.29470  1.0000
  O   O28       1.0  0.39500  0.89290  0.20530  1.0000
  O   O29       1.0  0.51240  0.31700  0.84250  1.0000
  O   O30       1.0  0.48760  0.81700  0.65750  1.0000
  O   O31       1.0  0.48760  0.68300  0.15750  1.0000
  O   O32       1.0  0.51240  0.18300  0.34250  1.0000
  O   O33       1.0  0.90140  0.69660  0.69380  1.0000
  O   O34       1.0  0.09860  0.19660  0.80620  1.0000
  O   O35       1.0  0.09860  0.30340  0.30620  1.0000
  O   O36       1.0  0.90140  0.80340  0.19380  1.0000
  O   O37       1.0  0.20170  0.65900  0.60320  1.0000
  O   O38       1.0  0.79830  0.15900  0.89680  1.0000
  O   O39       1.0  0.79830  0.34100  0.39680  1.0000
  O   O40       1.0  0.20170  0.84100  0.10320  1.0000
  C   C1        1.0  0.70050  0.59890  0.57100  1.0000
  C   C2        1.0  0.29950  0.09890  0.92900  1.0000
  C   C3        1.0  0.29950  0.40110  0.42900  1.0000
  C   C4        1.0  0.70050  0.90110  0.07100  1.0000
  C   C5        1.0  0.82390  0.54110  0.57850  1.0000
  C   C6        1.0  0.17610  0.04110  0.92150  1.0000
  C   C7        1.0  0.17610  0.45890  0.42150  1.0000
  C   C8        1.0  0.82390  0.95890  0.07850  1.0000
  C   C9        1.0  0.86220  0.49960  0.54050  1.0000
  C   C10       1.0  0.13780  0.99960  0.95950  1.0000
  C   C11       1.0  0.13780  0.50040  0.45950  1.0000
  C   C12       1.0  0.86220  0.00040  0.04050  1.0000
  H   H1        1.0  0.94610  0.46480  0.54550  1.0000
  H   H2        1.0  0.05390  0.96480  0.95450  1.0000
  H   H3        1.0  0.05390  0.53520  0.45450  1.0000
  H   H4        1.0  0.94610  0.03520  0.04550  1.0000
  C   C13       1.0  0.77390  0.51030  0.49480  1.0000
  C   C14       1.0  0.22610  0.01030  0.00520  1.0000
  C   C15       1.0  0.22610  0.48970  0.50520  1.0000
  C   C16       1.0  0.77390  0.98970  0.99480  1.0000
  H   H5        1.0  0.79740  0.47940  0.46910  1.0000
  H   H6        1.0  0.20260  0.97940  0.03090  1.0000
  H   H7        1.0  0.20260  0.52060  0.53090  1.0000
  H   H8        1.0  0.79740  0.02060  0.96910  1.0000
  C   C17       1.0  0.65310  0.56500  0.48620  1.0000
  C   C18       1.0  0.34690  0.06500  0.01380  1.0000
  C   C19       1.0  0.34690  0.43500  0.51380  1.0000
  C   C20       1.0  0.65310  0.93500  0.98620  1.0000
  C   C21       1.0  0.61370  0.61270  0.52450  1.0000
  C   C22       1.0  0.38630  0.11270  0.97550  1.0000
  C   C23       1.0  0.38630  0.38730  0.47550  1.0000
  C   C24       1.0  0.61370  0.88730  0.02450  1.0000
  C   C25       1.0  0.48530  0.67010  0.51520  1.0000
  C   C26       1.0  0.51470  0.17010  0.98480  1.0000
  C   C27       1.0  0.51470  0.32990  0.48480  1.0000
  C   C28       1.0  0.48530  0.82990  0.01520  1.0000
  C   C29       1.0  0.40690  0.68860  0.46390  1.0000
  C   C30       1.0  0.59310  0.18860  0.03610  1.0000
  C   C31       1.0  0.59310  0.31140  0.53610  1.0000
  C   C32       1.0  0.40690  0.81140  0.96390  1.0000
  C   C33       1.0  0.44420  0.64010  0.42760  1.0000
  C   C34       1.0  0.55580  0.14010  0.07240  1.0000
  C   C35       1.0  0.55580  0.35990  0.57240  1.0000
  C   C36       1.0  0.44420  0.85990  0.92760  1.0000
  C   C37       1.0  0.56300  0.56960  0.43660  1.0000
  C   C38       1.0  0.43700  0.06960  0.06340  1.0000
  C   C39       1.0  0.43700  0.43040  0.56340  1.0000
  C   C40       1.0  0.56300  0.93040  0.93660  1.0000
  C   C41       1.0  0.29370  0.75350  0.45370  1.0000
  C   C42       1.0  0.70630  0.25350  0.04630  1.0000
  C   C43       1.0  0.70630  0.24650  0.54630  1.0000
  C   C44       1.0  0.29370  0.74650  0.95370  1.0000
  H   H9        1.0  0.26760  0.78510  0.47870  1.0000
  H   H10       1.0  0.73240  0.28510  0.02130  1.0000
  H   H11       1.0  0.73240  0.21490  0.52130  1.0000
  H   H12       1.0  0.26760  0.71490  0.97870  1.0000
  C   C45       1.0  0.21770  0.77250  0.40650  1.0000
  C   C46       1.0  0.78230  0.27250  0.09350  1.0000
  C   C47       1.0  0.78230  0.22750  0.59350  1.0000
  C   C48       1.0  0.21770  0.72750  0.90650  1.0000
  H   H13       1.0  0.14330  0.81840  0.39950  1.0000
  H   H14       1.0  0.85670  0.31840  0.10050  1.0000
  H   H15       1.0  0.85670  0.18160  0.60050  1.0000
  H   H16       1.0  0.14330  0.68160  0.89950  1.0000
  C   C49       1.0  0.25570  0.72170  0.37080  1.0000
  C   C50       1.0  0.74430  0.22170  0.12920  1.0000
  C   C51       1.0  0.74430  0.27830  0.62920  1.0000
  C   C52       1.0  0.25570  0.77830  0.87080  1.0000
  H   H17       1.0  0.20320  0.73100  0.33920  1.0000
  H   H18       1.0  0.79680  0.23100  0.16080  1.0000
  H   H19       1.0  0.79680  0.26900  0.66080  1.0000
  H   H20       1.0  0.20320  0.76900  0.83920  1.0000
  C   C53       1.0  0.36710  0.65830  0.38010  1.0000
  C   C54       1.0  0.63290  0.15830  0.11990  1.0000
  C   C55       1.0  0.63290  0.34170  0.61990  1.0000
  C   C56       1.0  0.36710  0.84170  0.88010  1.0000
  H   H21       1.0  0.39260  0.62690  0.35500  1.0000
  H   H22       1.0  0.60740  0.12690  0.14500  1.0000
  H   H23       1.0  0.60740  0.37310  0.64500  1.0000
  H   H24       1.0  0.39260  0.87310  0.85500  1.0000
  C   C57       1.0  0.66080  0.51330  0.72760  1.0000
  C   C58       1.0  0.33920  0.01330  0.77240  1.0000
  C   C59       1.0  0.33920  0.48670  0.27240  1.0000
  C   C60       1.0  0.66080  0.98670  0.22760  1.0000
  C   C61       1.0  0.78600  0.45290  0.73690  1.0000
  C   C62       1.0  0.21400  0.95290  0.76310  1.0000
  C   C63       1.0  0.21400  0.54710  0.26310  1.0000
  C   C64       1.0  0.78600  0.04710  0.23690  1.0000
  C   C65       1.0  0.80860  0.37340  0.77060  1.0000
  C   C66       1.0  0.19140  0.87340  0.72940  1.0000
  C   C67       1.0  0.19140  0.62660  0.22940  1.0000
  C   C68       1.0  0.80860  0.12660  0.27060  1.0000
  H   H25       1.0  0.88900  0.33370  0.77730  1.0000
  H   H26       1.0  0.11100  0.83370  0.72270  1.0000
  H   H27       1.0  0.11100  0.66630  0.22270  1.0000
  H   H28       1.0  0.88900  0.16630  0.27730  1.0000
  C   C69       1.0  0.71040  0.35510  0.79370  1.0000
  C   C70       1.0  0.28960  0.85510  0.70630  1.0000
  C   C71       1.0  0.28960  0.64490  0.20630  1.0000
  C   C72       1.0  0.71040  0.14490  0.29370  1.0000
  H   H29       1.0  0.72560  0.30130  0.81610  1.0000
  H   H30       1.0  0.27440  0.80130  0.68390  1.0000
  H   H31       1.0  0.27440  0.69870  0.18390  1.0000
  H   H32       1.0  0.72560  0.19870  0.31610  1.0000
  C   C73       1.0  0.59000  0.41150  0.78610  1.0000
  C   C74       1.0  0.41000  0.91150  0.71390  1.0000
  C   C75       1.0  0.41000  0.58850  0.21390  1.0000
  C   C76       1.0  0.59000  0.08850  0.28610  1.0000
  C   C77       1.0  0.56250  0.49130  0.75090  1.0000
  C   C78       1.0  0.43750  0.99130  0.74910  1.0000
  C   C79       1.0  0.43750  0.50870  0.24910  1.0000
  C   C80       1.0  0.56250  0.00870  0.25090  1.0000
  C   C81       1.0  0.43060  0.54650  0.73950  1.0000
  C   C82       1.0  0.56940  0.04650  0.76050  1.0000
  C   C83       1.0  0.56940  0.45350  0.26050  1.0000
  C   C84       1.0  0.43060  0.95350  0.23950  1.0000
  C   C85       1.0  0.33820  0.52740  0.76950  1.0000
  C   C86       1.0  0.66180  0.02740  0.73050  1.0000
  C   C87       1.0  0.66180  0.47260  0.23050  1.0000
  C   C88       1.0  0.33820  0.97260  0.26950  1.0000
  C   C89       1.0  0.36700  0.45180  0.80550  1.0000
  C   C90       1.0  0.63300  0.95180  0.69450  1.0000
  C   C91       1.0  0.63300  0.54820  0.19450  1.0000
  C   C92       1.0  0.36700  0.04820  0.30550  1.0000
  C   C93       1.0  0.49310  0.38700  0.81310  1.0000
  C   C94       1.0  0.50690  0.88700  0.68690  1.0000
  C   C95       1.0  0.50690  0.61300  0.18690  1.0000
  C   C96       1.0  0.49310  0.11300  0.31310  1.0000
  C   C97       1.0  0.21610  0.58500  0.76240  1.0000
  C   C98       1.0  0.78390  0.08500  0.73760  1.0000
  C   C99       1.0  0.78390  0.41500  0.23760  1.0000
  C   C100      1.0  0.21610  0.91500  0.26240  1.0000
  H   H33       1.0  0.19590  0.63750  0.73940  1.0000
  H   H34       1.0  0.80410  0.13750  0.76060  1.0000
  H   H35       1.0  0.80410  0.36250  0.26060  1.0000
  H   H36       1.0  0.19590  0.86250  0.23940  1.0000
  C   C101      1.0  0.12760  0.56500  0.78860  1.0000
  C   C102      1.0  0.87240  0.06500  0.71140  1.0000
  C   C103      1.0  0.87240  0.43500  0.21140  1.0000
  C   C104      1.0  0.12760  0.93500  0.28860  1.0000
  H   H37       1.0  0.04560  0.60270  0.78250  1.0000
  H   H38       1.0  0.95440  0.10270  0.71750  1.0000
  H   H39       1.0  0.95440  0.39730  0.21750  1.0000
  H   H40       1.0  0.04560  0.89730  0.28250  1.0000
  C   C105      1.0  0.15430  0.49210  0.82340  1.0000
  C   C106      1.0  0.84570  0.99210  0.67660  1.0000
  C   C107      1.0  0.84570  0.50790  0.17660  1.0000
  C   C108      1.0  0.15430  0.00790  0.32340  1.0000
  H   H41       1.0  0.09220  0.48070  0.84140  1.0000
  H   H42       1.0  0.90780  0.98070  0.65860  1.0000
  H   H43       1.0  0.90780  0.51930  0.15860  1.0000
  H   H44       1.0  0.09220  0.01930  0.34140  1.0000
  C   C109      1.0  0.27450  0.43480  0.83210  1.0000
  C   C110      1.0  0.72550  0.93480  0.66790  1.0000
  C   C111      1.0  0.72550  0.56520  0.16790  1.0000
  C   C112      1.0  0.27450  0.06520  0.33210  1.0000
  H   H45       1.0  0.29350  0.38440  0.85600  1.0000
  H   H46       1.0  0.70650  0.88440  0.64400  1.0000
  H   H47       1.0  0.70650  0.61560  0.14400  1.0000
  H   H48       1.0  0.29350  0.11560  0.35600  1.0000
  C   C113      1.0  0.10000  0.70680  0.60300  1.0000
  C   C114      1.0  0.90000  0.20680  0.89700  1.0000
  C   C115      1.0  0.90000  0.29320  0.39700  1.0000
  C   C116      1.0  0.10000  0.79320  0.10300  1.0000
  H   H49       1.0  0.07530  0.70540  0.63160  1.0000
  H   H50       1.0  0.92470  0.20540  0.86840  1.0000
  H   H51       1.0  0.92470  0.29460  0.36840  1.0000
  H   H52       1.0  0.07530  0.79460  0.13160  1.0000
  C   C117      1.0  0.02800  0.75310  0.52100  1.0000
  C   C118      1.0  0.97200  0.25310  0.97900  1.0000
  C   C119      1.0  0.97200  0.24690  0.47900  1.0000
  C   C120      1.0  0.02800  0.74690  0.02100  1.0000
  H   H53       1.0  0.11900  0.72870  0.52210  1.0000
  H   H54       1.0  0.88100  0.22870  0.97790  1.0000
  H   H55       1.0  0.88100  0.27130  0.47790  1.0000
  H   H56       1.0  0.11900  0.77130  0.02210  1.0000
  H   H57       1.0  0.01310  0.82010  0.50580  1.0000
  H   H58       1.0  0.98690  0.32010  0.99420  1.0000
  H   H59       1.0  0.98690  0.17990  0.49420  1.0000
  H   H60       1.0  0.01310  0.67990  0.00580  1.0000
  H   H61       1.0  0.96040  0.70480  0.50310  1.0000
  H   H62       1.0  0.03960  0.20480  0.99690  1.0000
  H   H63       1.0  0.03960  0.29520  0.49690  1.0000
  H   H64       1.0  0.96040  0.79520  0.00310  1.0000
  C   C121      1.0  0.91400  0.81530  0.58200  1.0000
  C   C122      1.0  0.08600  0.31530  0.91800  1.0000
  C   C123      1.0  0.08600  0.18470  0.41800  1.0000
  C   C124      1.0  0.91400  0.68470  0.08200  1.0000
  H   H65       1.0  0.89040  0.77780  0.60730  1.0000
  H   H66       1.0  0.10960  0.27780  0.89270  1.0000
  H   H67       1.0  0.10960  0.22220  0.39270  1.0000
  H   H68       1.0  0.89040  0.72220  0.10730  1.0000
  H   H69       1.0  0.83320  0.82210  0.55520  1.0000
  H   H70       1.0  0.16680  0.32210  0.94480  1.0000
  H   H71       1.0  0.16680  0.17790  0.44480  1.0000
  H   H72       1.0  0.83320  0.67790  0.05520  1.0000
  H   H73       1.0  0.94760  0.88320  0.59330  1.0000
  H   H74       1.0  0.05240  0.38320  0.90670  1.0000
  H   H75       1.0  0.05240  0.11680  0.40670  1.0000
  H   H76       1.0  0.94760  0.61680  0.09330  1.0000
