data_image0
_chemical_formula_structural       U8O28C4O12C8H8
_chemical_formula_sum              "U8 O40 C12 H8"
_cell_length_a       7.923
_cell_length_b       13.3793
_cell_length_c       17.4141
_cell_angle_alpha    90
_cell_angle_beta     96.006
_cell_angle_gamma    90

_space_group_name_H-M_alt    "P 1"
_space_group_IT_number       1

loop_
  _space_group_symop_operation_xyz
  'x, y, z'

loop_
  _atom_site_type_symbol
  _atom_site_label
  _atom_site_symmetry_multiplicity
  _atom_site_fract_x
  _atom_site_fract_y
  _atom_site_fract_z
  _atom_site_occupancy
  U   U1        1.0  0.47618  0.26197  0.01586  1.0000
  U   U2        1.0  0.02382  0.76197  0.48414  1.0000
  U   U3        1.0  0.52382  0.73803  0.98414  1.0000
  U   U4        1.0  0.97618  0.23803  0.51586  1.0000
  U   U5        1.0  0.27283  0.97368  0.00161  1.0000
  U   U6        1.0  0.22717  0.47368  0.49839  1.0000
  U   U7        1.0  0.72717  0.02632  0.99839  1.0000
  U   U8        1.0  0.77283  0.52632  0.50161  1.0000
  O   O1        1.0  0.23180  0.98400  0.89942  1.0000
  O   O2        1.0  0.26820  0.48400  0.60058  1.0000
  O   O3        1.0  0.76820  0.01600  0.10058  1.0000
  O   O4        1.0  0.73180  0.51600  0.39942  1.0000
  O   O5        1.0  0.03480  0.09800  0.00898  1.0000
  O   O6        1.0  0.46520  0.59800  0.49102  1.0000
  O   O7        1.0  0.96520  0.90200  0.99102  1.0000
  O   O8        1.0  0.53480  0.40200  0.50898  1.0000
  O   O9        1.0  0.28890  0.96200  0.10428  1.0000
  O   O10       1.0  0.21110  0.46200  0.39572  1.0000
  O   O11       1.0  0.71110  0.03800  0.89572  1.0000
  O   O12       1.0  0.78890  0.53800  0.60428  1.0000
  O   O13       1.0  0.53510  0.27110  0.11710  1.0000
  O   O14       1.0  0.96490  0.77110  0.38290  1.0000
  O   O15       1.0  0.46490  0.72890  0.88290  1.0000
  O   O16       1.0  0.03510  0.22890  0.61710  1.0000
  O   O17       1.0  0.41560  0.26400  0.91500  1.0000
  O   O18       1.0  0.08440  0.76400  0.58500  1.0000
  O   O19       1.0  0.58440  0.73600  0.08500  1.0000
  O   O20       1.0  0.91560  0.23600  0.41500  1.0000
  O   O21       1.0  0.32680  0.42580  0.01670  1.0000
  O   O22       1.0  0.17320  0.92580  0.48330  1.0000
  O   O23       1.0  0.67320  0.57420  0.98330  1.0000
  O   O24       1.0  0.82680  0.07420  0.51670  1.0000
  O   O25       1.0  0.65520  0.40940  0.99610  1.0000
  O   O26       1.0  0.84480  0.90940  0.50390  1.0000
  O   O27       1.0  0.34480  0.59060  0.00390  1.0000
  O   O28       1.0  0.15520  0.09060  0.49610  1.0000
  C   C1        1.0  0.05420  0.18720  0.03330  1.0000
  C   C2        1.0  0.44580  0.68720  0.46670  1.0000
  C   C3        1.0  0.94580  0.81280  0.96670  1.0000
  C   C4        1.0  0.55420  0.31280  0.53330  1.0000
  O   O29       1.0  0.75220  0.20400  0.00680  1.0000
  O   O30       1.0  0.74780  0.70400  0.49320  1.0000
  O   O31       1.0  0.24780  0.79600  0.99320  1.0000
  O   O32       1.0  0.25220  0.29600  0.50680  1.0000
  O   O33       1.0  0.46830  0.09600  0.01030  1.0000
  O   O34       1.0  0.03170  0.59600  0.48970  1.0000
  O   O35       1.0  0.53170  0.90400  0.98970  1.0000
  O   O36       1.0  0.96830  0.40400  0.51030  1.0000
  O   O37       1.0  0.19490  0.22850  0.04830  1.0000
  O   O38       1.0  0.30510  0.72850  0.45170  1.0000
  O   O39       1.0  0.80510  0.77150  0.95170  1.0000
  O   O40       1.0  0.69490  0.27150  0.54830  1.0000
  C   C5        1.0  0.40600  0.50450  0.00550  1.0000
  C   C6        1.0  0.09400  0.00450  0.49450  1.0000
  C   C7        1.0  0.59400  0.49550  0.99450  1.0000
  C   C8        1.0  0.90600  0.99550  0.50550  1.0000
  C   C9        1.0  0.89720  0.24450  0.04830  1.0000
  C   C10       1.0  0.60280  0.74450  0.45170  1.0000
  C   C11       1.0  0.10280  0.75550  0.95170  1.0000
  C   C12       1.0  0.39720  0.25550  0.54830  1.0000
  H   H1        1.0  0.90950  0.31380  0.03350  1.0000
  H   H2        1.0  0.59050  0.81380  0.46650  1.0000
  H   H3        1.0  0.09050  0.68620  0.96650  1.0000
  H   H4        1.0  0.40950  0.18620  0.53350  1.0000
  H   H5        1.0  0.88430  0.24280  0.10310  1.0000
  H   H6        1.0  0.61570  0.74280  0.39690  1.0000
  H   H7        1.0  0.11570  0.75720  0.89690  1.0000
  H   H8        1.0  0.38430  0.25720  0.60310  1.0000
