data_image0
_chemical_formula_structural       In4Cl4O24C4H4C16H4C20H4C8H4C8H4C8H4C8H4C4H4C4H4C4H4C4H4C4H4C4H4C4H4C4H4C4In4Cl4O24C20H4C12H4C8H4C12H4C4H4C4H4C16H4C4H4C4H4C4H4C4H4C4H4C4H4C4H4C4H4
_chemical_formula_sum              "In8 Cl8 O48 C216 H120"
_cell_length_a       17.3589
_cell_length_b       13.041
_cell_length_c       25.9082
_cell_angle_alpha    90
_cell_angle_beta     91.109
_cell_angle_gamma    90

_space_group_name_H-M_alt    "P 1"
_space_group_IT_number       1

loop_
  _space_group_symop_operation_xyz
  'x, y, z'

loop_
  _atom_site_type_symbol
  _atom_site_label
  _atom_site_symmetry_multiplicity
  _atom_site_fract_x
  _atom_site_fract_y
  _atom_site_fract_z
  _atom_site_occupancy
  In  In1       1.0  0.24842  0.53380  0.03748  1.0000
  In  In2       1.0  0.25158  0.03380  0.46252  1.0000
  In  In3       1.0  0.75158  0.46620  0.96252  1.0000
  In  In4       1.0  0.74842  0.96620  0.53748  1.0000
  Cl  Cl1       1.0  0.24279  0.35730  0.06215  1.0000
  Cl  Cl2       1.0  0.25721  0.85730  0.43785  1.0000
  Cl  Cl3       1.0  0.75721  0.64270  0.93785  1.0000
  Cl  Cl4       1.0  0.74279  0.14270  0.56215  1.0000
  O   O1        1.0  0.74490  0.97900  0.45307  1.0000
  O   O2        1.0  0.75510  0.47900  0.04693  1.0000
  O   O3        1.0  0.25510  0.02100  0.54693  1.0000
  O   O4        1.0  0.24490  0.52100  0.95307  1.0000
  O   O5        1.0  0.38410  0.52020  0.03028  1.0000
  O   O6        1.0  0.11590  0.02020  0.46972  1.0000
  O   O7        1.0  0.61590  0.47980  0.96972  1.0000
  O   O8        1.0  0.88410  0.97980  0.53028  1.0000
  O   O9        1.0  0.32980  0.60550  0.09227  1.0000
  O   O10       1.0  0.17020  0.10550  0.40773  1.0000
  O   O11       1.0  0.67020  0.39450  0.90773  1.0000
  O   O12       1.0  0.82980  0.89450  0.59227  1.0000
  O   O13       1.0  0.11820  0.55940  0.02327  1.0000
  O   O14       1.0  0.38180  0.05940  0.47673  1.0000
  O   O15       1.0  0.88180  0.44060  0.97673  1.0000
  O   O16       1.0  0.61820  0.94060  0.52327  1.0000
  O   O17       1.0  0.76830  0.82710  0.48470  1.0000
  O   O18       1.0  0.73170  0.32710  0.01530  1.0000
  O   O19       1.0  0.23170  0.17290  0.51530  1.0000
  O   O20       1.0  0.26830  0.67290  0.98470  1.0000
  O   O21       1.0  0.17330  0.59970  0.09560  1.0000
  O   O22       1.0  0.32670  0.09970  0.40440  1.0000
  O   O23       1.0  0.82670  0.40030  0.90440  1.0000
  O   O24       1.0  0.67330  0.90030  0.59560  1.0000
  C   C1        1.0  0.90020  0.62580  0.08610  1.0000
  C   C2        1.0  0.59980  0.12580  0.41390  1.0000
  C   C3        1.0  0.09980  0.37420  0.91390  1.0000
  C   C4        1.0  0.40020  0.87420  0.58610  1.0000
  H   H1        1.0  0.85440  0.61290  0.06800  1.0000
  H   H2        1.0  0.64560  0.11290  0.43200  1.0000
  H   H3        1.0  0.14560  0.38710  0.93200  1.0000
  H   H4        1.0  0.35440  0.88710  0.56800  1.0000
  C   C5        1.0  0.75610  0.84300  0.39310  1.0000
  C   C6        1.0  0.74390  0.34300  0.10690  1.0000
  C   C7        1.0  0.24390  0.15700  0.60690  1.0000
  C   C8        1.0  0.25610  0.65700  0.89310  1.0000
  C   C9        1.0  0.68240  0.69040  0.15970  1.0000
  C   C10       1.0  0.81760  0.19040  0.34030  1.0000
  C   C11       1.0  0.31760  0.30960  0.84030  1.0000
  C   C12       1.0  0.18240  0.80960  0.65970  1.0000
  C   C13       1.0  0.82310  0.68260  0.16260  1.0000
  C   C14       1.0  0.67690  0.18260  0.33740  1.0000
  C   C15       1.0  0.17690  0.31740  0.83740  1.0000
  C   C16       1.0  0.32310  0.81740  0.66260  1.0000
  C   C17       1.0  0.82140  0.70890  0.21420  1.0000
  C   C18       1.0  0.67860  0.20890  0.28580  1.0000
  C   C19       1.0  0.17860  0.29110  0.78580  1.0000
  C   C20       1.0  0.32140  0.79110  0.71420  1.0000
  H   H5        1.0  0.86730  0.71050  0.23330  1.0000
  H   H6        1.0  0.63270  0.21050  0.26670  1.0000
  H   H7        1.0  0.13270  0.28950  0.76670  1.0000
  H   H8        1.0  0.36730  0.78950  0.73330  1.0000
  C   C21       1.0  0.75330  0.76960  0.29250  1.0000
  C   C22       1.0  0.74670  0.26960  0.20750  1.0000
  C   C23       1.0  0.24670  0.23040  0.70750  1.0000
  C   C24       1.0  0.25330  0.73040  0.79250  1.0000
  C   C25       1.0  0.46570  0.60970  0.09070  1.0000
  C   C26       1.0  0.03430  0.10970  0.40930  1.0000
  C   C27       1.0  0.53430  0.39030  0.90930  1.0000
  C   C28       1.0  0.96570  0.89030  0.59070  1.0000
  C   C29       1.0  0.03800  0.62490  0.08950  1.0000
  C   C30       1.0  0.46200  0.12490  0.41050  1.0000
  C   C31       1.0  0.96200  0.37510  0.91050  1.0000
  C   C32       1.0  0.53800  0.87510  0.58950  1.0000
  C   C33       1.0  0.60800  0.66870  0.13290  1.0000
  C   C34       1.0  0.89200  0.16870  0.36710  1.0000
  C   C35       1.0  0.39200  0.33130  0.86710  1.0000
  C   C36       1.0  0.10800  0.83130  0.63290  1.0000
  C   C37       1.0  0.75250  0.67320  0.13580  1.0000
  C   C38       1.0  0.74750  0.17320  0.36420  1.0000
  C   C39       1.0  0.24750  0.32680  0.86420  1.0000
  C   C40       1.0  0.25250  0.82680  0.63580  1.0000
  H   H9        1.0  0.75240  0.65490  0.10110  1.0000
  H   H10       1.0  0.74760  0.15490  0.39890  1.0000
  H   H11       1.0  0.24760  0.34510  0.89890  1.0000
  H   H12       1.0  0.25240  0.84510  0.60110  1.0000
  C   C41       1.0  0.75630  0.88510  0.44620  1.0000
  C   C42       1.0  0.74370  0.38510  0.05380  1.0000
  C   C43       1.0  0.24370  0.11490  0.55380  1.0000
  C   C44       1.0  0.25630  0.61490  0.94620  1.0000
  C   C45       1.0  0.60420  0.59820  0.09290  1.0000
  C   C46       1.0  0.89580  0.09820  0.40710  1.0000
  C   C47       1.0  0.39580  0.40180  0.90710  1.0000
  C   C48       1.0  0.10420  0.90180  0.59290  1.0000
  H   H13       1.0  0.64930  0.57040  0.08010  1.0000
  H   H14       1.0  0.85070  0.07040  0.41990  1.0000
  H   H15       1.0  0.35070  0.42960  0.91990  1.0000
  H   H16       1.0  0.14930  0.92960  0.58010  1.0000
  C   C49       1.0  0.89720  0.66550  0.13610  1.0000
  C   C50       1.0  0.60280  0.16550  0.36390  1.0000
  C   C51       1.0  0.10280  0.33450  0.86390  1.0000
  C   C52       1.0  0.39720  0.83450  0.63610  1.0000
  C   C53       1.0  0.96920  0.60530  0.06290  1.0000
  C   C54       1.0  0.53080  0.10530  0.43710  1.0000
  C   C55       1.0  0.03080  0.39470  0.93710  1.0000
  C   C56       1.0  0.46920  0.89470  0.56290  1.0000
  H   H17       1.0  0.96970  0.57850  0.02960  1.0000
  H   H18       1.0  0.53030  0.07850  0.47040  1.0000
  H   H19       1.0  0.03030  0.42150  0.97040  1.0000
  H   H20       1.0  0.46970  0.92150  0.52960  1.0000
  C   C57       1.0  0.75310  0.73310  0.23820  1.0000
  C   C58       1.0  0.74690  0.23310  0.26180  1.0000
  C   C59       1.0  0.24690  0.26690  0.76180  1.0000
  C   C60       1.0  0.25310  0.76690  0.73820  1.0000
  C   C61       1.0  0.68390  0.72460  0.21110  1.0000
  C   C62       1.0  0.81610  0.22460  0.28890  1.0000
  C   C63       1.0  0.31610  0.27540  0.78890  1.0000
  C   C64       1.0  0.18390  0.77540  0.71110  1.0000
  H   H21       1.0  0.63810  0.74170  0.22700  1.0000
  H   H22       1.0  0.86190  0.24170  0.27300  1.0000
  H   H23       1.0  0.36190  0.25830  0.77300  1.0000
  H   H24       1.0  0.13810  0.75830  0.72700  1.0000
  C   C65       1.0  0.39010  0.57530  0.06990  1.0000
  C   C66       1.0  0.10990  0.07530  0.43010  1.0000
  C   C67       1.0  0.60990  0.42470  0.93010  1.0000
  C   C68       1.0  0.89010  0.92470  0.56990  1.0000
  C   C69       1.0  0.72130  0.90010  0.35370  1.0000
  C   C70       1.0  0.77870  0.40010  0.14630  1.0000
  C   C71       1.0  0.27870  0.09990  0.64630  1.0000
  C   C72       1.0  0.22130  0.59990  0.85370  1.0000
  H   H25       1.0  0.70010  0.96380  0.36100  1.0000
  H   H26       1.0  0.79990  0.46380  0.13900  1.0000
  H   H27       1.0  0.29990  0.03620  0.63900  1.0000
  H   H28       1.0  0.20010  0.53620  0.86100  1.0000
  C   C73       1.0  0.71820  0.86310  0.30400  1.0000
  C   C74       1.0  0.78180  0.36310  0.19600  1.0000
  C   C75       1.0  0.28180  0.13690  0.69600  1.0000
  C   C76       1.0  0.21820  0.63690  0.80400  1.0000
  H   H29       1.0  0.69290  0.90020  0.27810  1.0000
  H   H30       1.0  0.80710  0.40020  0.22190  1.0000
  H   H31       1.0  0.30710  0.09980  0.72190  1.0000
  H   H32       1.0  0.19290  0.59980  0.77810  1.0000
  C   C77       1.0  0.78820  0.74850  0.38220  1.0000
  C   C78       1.0  0.71180  0.24850  0.11780  1.0000
  C   C79       1.0  0.21180  0.25150  0.61780  1.0000
  C   C80       1.0  0.28820  0.75150  0.88220  1.0000
  H   H33       1.0  0.80960  0.70900  0.40870  1.0000
  H   H34       1.0  0.69040  0.20900  0.09130  1.0000
  H   H35       1.0  0.19040  0.29100  0.59130  1.0000
  H   H36       1.0  0.30960  0.79100  0.90870  1.0000
  C   C81       1.0  0.78860  0.71280  0.33180  1.0000
  C   C82       1.0  0.71140  0.21280  0.16820  1.0000
  C   C83       1.0  0.21140  0.28720  0.66820  1.0000
  C   C84       1.0  0.28860  0.78720  0.83180  1.0000
  H   H37       1.0  0.81250  0.65090  0.32430  1.0000
  H   H38       1.0  0.68750  0.15090  0.17570  1.0000
  H   H39       1.0  0.18750  0.34910  0.67570  1.0000
  H   H40       1.0  0.31250  0.84910  0.82430  1.0000
  C   C85       1.0  0.53350  0.56890  0.07190  1.0000
  C   C86       1.0  0.96650  0.06890  0.42810  1.0000
  C   C87       1.0  0.46650  0.43110  0.92810  1.0000
  C   C88       1.0  0.03350  0.93110  0.57190  1.0000
  H   H41       1.0  0.53150  0.52150  0.04510  1.0000
  H   H42       1.0  0.96850  0.02150  0.45490  1.0000
  H   H43       1.0  0.46850  0.47850  0.95490  1.0000
  H   H44       1.0  0.03150  0.97850  0.54510  1.0000
  C   C89       1.0  0.46930  0.68220  0.12970  1.0000
  C   C90       1.0  0.03070  0.18220  0.37030  1.0000
  C   C91       1.0  0.53070  0.31780  0.87030  1.0000
  C   C92       1.0  0.96930  0.81780  0.62970  1.0000
  H   H45       1.0  0.42410  0.71030  0.14230  1.0000
  H   H46       1.0  0.07590  0.21030  0.35770  1.0000
  H   H47       1.0  0.57590  0.28970  0.85770  1.0000
  H   H48       1.0  0.92410  0.78970  0.64230  1.0000
  C   C93       1.0  0.96650  0.69230  0.16020  1.0000
  C   C94       1.0  0.53350  0.19230  0.33980  1.0000
  C   C95       1.0  0.03350  0.30770  0.83980  1.0000
  C   C96       1.0  0.46650  0.80770  0.66020  1.0000
  H   H49       1.0  0.96610  0.72440  0.19220  1.0000
  H   H50       1.0  0.53390  0.22440  0.30780  1.0000
  H   H51       1.0  0.03390  0.27560  0.80780  1.0000
  H   H52       1.0  0.46610  0.77560  0.69220  1.0000
  C   C97       1.0  0.54040  0.71320  0.15010  1.0000
  C   C98       1.0  0.95960  0.21320  0.34990  1.0000
  C   C99       1.0  0.45960  0.28680  0.84990  1.0000
  C   C100      1.0  0.04040  0.78680  0.65010  1.0000
  H   H53       1.0  0.54260  0.76390  0.17530  1.0000
  H   H54       1.0  0.95740  0.26390  0.32470  1.0000
  H   H55       1.0  0.45740  0.23610  0.82470  1.0000
  H   H56       1.0  0.04260  0.73610  0.67530  1.0000
  C   C101      1.0  0.03570  0.67180  0.13730  1.0000
  C   C102      1.0  0.46430  0.17180  0.36270  1.0000
  C   C103      1.0  0.96430  0.32820  0.86270  1.0000
  C   C104      1.0  0.53570  0.82820  0.63730  1.0000
  H   H57       1.0  0.08150  0.68980  0.15420  1.0000
  H   H58       1.0  0.41850  0.18980  0.34580  1.0000
  H   H59       1.0  0.91850  0.31020  0.84580  1.0000
  H   H60       1.0  0.58150  0.81020  0.65420  1.0000
  C   C105      1.0  0.11290  0.59290  0.06780  1.0000
  C   C106      1.0  0.38710  0.09290  0.43220  1.0000
  C   C107      1.0  0.88710  0.40710  0.93220  1.0000
  C   C108      1.0  0.61290  0.90710  0.56780  1.0000
  In  In5       1.0  0.97952  0.49322  0.67978  1.0000
  In  In6       1.0  0.52048  0.99322  0.82022  1.0000
  In  In7       1.0  0.02048  0.50678  0.32022  1.0000
  In  In8       1.0  0.47952  0.00678  0.17978  1.0000
  Cl  Cl5       1.0  0.99398  0.30826  0.67875  1.0000
  Cl  Cl6       1.0  0.50602  0.80826  0.82125  1.0000
  Cl  Cl7       1.0  0.00602  0.69174  0.32125  1.0000
  Cl  Cl8       1.0  0.49398  0.19174  0.17875  1.0000
  O   O25       1.0  0.09460  0.53540  0.66170  1.0000
  O   O26       1.0  0.40540  0.03540  0.83830  1.0000
  O   O27       1.0  0.90540  0.46460  0.33830  1.0000
  O   O28       1.0  0.59460  0.96460  0.16170  1.0000
  O   O29       1.0  0.90460  0.56230  0.61950  1.0000
  O   O30       1.0  0.59540  0.06230  0.88050  1.0000
  O   O31       1.0  0.09540  0.43770  0.38050  1.0000
  O   O32       1.0  0.40460  0.93770  0.11950  1.0000
  O   O33       1.0  0.84680  0.47420  0.67700  1.0000
  O   O34       1.0  0.65320  0.97420  0.82300  1.0000
  O   O35       1.0  0.15320  0.52580  0.32300  1.0000
  O   O36       1.0  0.34680  0.02580  0.17700  1.0000
  O   O37       1.0  0.45080  0.86620  0.22690  1.0000
  O   O38       1.0  0.04920  0.36620  0.27310  1.0000
  O   O39       1.0  0.54920  0.13380  0.77310  1.0000
  O   O40       1.0  0.95080  0.63380  0.72690  1.0000
  O   O41       1.0  0.50390  0.99740  0.26340  1.0000
  O   O42       1.0  0.99610  0.49740  0.23660  1.0000
  O   O43       1.0  0.49610  0.00260  0.73660  1.0000
  O   O44       1.0  0.00390  0.50260  0.76340  1.0000
  O   O45       1.0  0.05990  0.46700  0.58650  1.0000
  O   O46       1.0  0.44010  0.96700  0.91350  1.0000
  O   O47       1.0  0.94010  0.53300  0.41350  1.0000
  O   O48       1.0  0.55990  0.03300  0.08650  1.0000
  C   C109      1.0  0.40860  0.61640  0.53360  1.0000
  C   C110      1.0  0.09140  0.11640  0.96640  1.0000
  C   C111      1.0  0.59140  0.38360  0.46640  1.0000
  C   C112      1.0  0.90860  0.88360  0.03360  1.0000
  C   C113      1.0  0.33340  0.58590  0.55680  1.0000
  C   C114      1.0  0.16660  0.08590  0.94320  1.0000
  C   C115      1.0  0.66660  0.41410  0.44320  1.0000
  C   C116      1.0  0.83340  0.91410  0.05680  1.0000
  C   C117      1.0  0.54870  0.62760  0.53850  1.0000
  C   C118      1.0  0.95130  0.12760  0.96150  1.0000
  C   C119      1.0  0.45130  0.37240  0.46150  1.0000
  C   C120      1.0  0.04870  0.87240  0.03850  1.0000
  C   C121      1.0  0.47790  0.69820  0.46490  1.0000
  C   C122      1.0  0.02210  0.19820  0.03510  1.0000
  C   C123      1.0  0.52210  0.30180  0.53510  1.0000
  C   C124      1.0  0.97790  0.80180  0.96490  1.0000
  C   C125      1.0  0.54630  0.67780  0.49050  1.0000
  C   C126      1.0  0.95370  0.17780  0.00950  1.0000
  C   C127      1.0  0.45370  0.32220  0.50950  1.0000
  C   C128      1.0  0.04630  0.82220  0.99050  1.0000
  H   H61       1.0  0.59220  0.69780  0.47570  1.0000
  H   H62       1.0  0.90780  0.19780  0.02430  1.0000
  H   H63       1.0  0.40780  0.30220  0.52430  1.0000
  H   H64       1.0  0.09220  0.80220  0.97570  1.0000
  C   C129      1.0  0.62330  0.60710  0.56620  1.0000
  C   C130      1.0  0.87670  0.10710  0.93380  1.0000
  C   C131      1.0  0.37670  0.39290  0.43380  1.0000
  C   C132      1.0  0.12330  0.89290  0.06620  1.0000
  C   C133      1.0  0.47700  0.75380  0.41440  1.0000
  C   C134      1.0  0.02300  0.25380  0.08560  1.0000
  C   C135      1.0  0.52300  0.24620  0.58560  1.0000
  C   C136      1.0  0.97700  0.74620  0.91440  1.0000
  C   C137      1.0  0.40890  0.66660  0.48640  1.0000
  C   C138      1.0  0.09110  0.16660  0.01360  1.0000
  C   C139      1.0  0.59110  0.33340  0.51360  1.0000
  C   C140      1.0  0.90890  0.83340  0.98640  1.0000
  H   H65       1.0  0.36260  0.67930  0.46890  1.0000
  H   H66       1.0  0.13740  0.17930  0.03110  1.0000
  H   H67       1.0  0.63740  0.32070  0.53110  1.0000
  H   H68       1.0  0.86260  0.82070  0.96890  1.0000
  C   C141      1.0  0.76660  0.56060  0.61460  1.0000
  C   C142      1.0  0.73340  0.06060  0.88540  1.0000
  C   C143      1.0  0.23340  0.43940  0.38540  1.0000
  C   C144      1.0  0.26660  0.93940  0.11460  1.0000
  C   C145      1.0  0.47880  0.59830  0.55940  1.0000
  C   C146      1.0  0.02120  0.09830  0.94060  1.0000
  C   C147      1.0  0.52120  0.40170  0.44060  1.0000
  C   C148      1.0  0.97880  0.90170  0.05940  1.0000
  H   H69       1.0  0.47870  0.56590  0.59140  1.0000
  H   H70       1.0  0.02130  0.06590  0.90860  1.0000
  H   H71       1.0  0.52130  0.43410  0.40860  1.0000
  H   H72       1.0  0.97870  0.93410  0.09140  1.0000
  C   C149      1.0  0.18770  0.53460  0.59710  1.0000
  C   C150      1.0  0.31230  0.03460  0.90290  1.0000
  C   C151      1.0  0.81230  0.46540  0.40290  1.0000
  C   C152      1.0  0.68770  0.96540  0.09710  1.0000
  C   C153      1.0  0.47640  0.85560  0.31850  1.0000
  C   C154      1.0  0.02360  0.35560  0.18150  1.0000
  C   C155      1.0  0.52360  0.14440  0.68150  1.0000
  C   C156      1.0  0.97640  0.64440  0.81850  1.0000
  C   C157      1.0  0.32000  0.58640  0.60940  1.0000
  C   C158      1.0  0.18000  0.08640  0.89060  1.0000
  C   C159      1.0  0.68000  0.41360  0.39060  1.0000
  C   C160      1.0  0.82000  0.91360  0.10940  1.0000
  H   H73       1.0  0.36030  0.60270  0.63220  1.0000
  H   H74       1.0  0.13970  0.10270  0.86780  1.0000
  H   H75       1.0  0.63970  0.39730  0.36780  1.0000
  H   H76       1.0  0.86030  0.89730  0.13220  1.0000
  C   C161      1.0  0.27210  0.55140  0.52410  1.0000
  C   C162      1.0  0.22790  0.05140  0.97590  1.0000
  C   C163      1.0  0.72790  0.44860  0.47590  1.0000
  C   C164      1.0  0.77210  0.94860  0.02410  1.0000
  H   H77       1.0  0.27990  0.54680  0.48870  1.0000
  H   H78       1.0  0.22010  0.04680  0.01130  1.0000
  H   H79       1.0  0.72010  0.45320  0.51130  1.0000
  H   H80       1.0  0.77990  0.95320  0.98870  1.0000
  C   C165      1.0  0.24850  0.56350  0.62890  1.0000
  C   C166      1.0  0.25150  0.06350  0.87110  1.0000
  C   C167      1.0  0.75150  0.43650  0.37110  1.0000
  C   C168      1.0  0.74850  0.93650  0.12890  1.0000
  H   H81       1.0  0.24120  0.56760  0.66430  1.0000
  H   H82       1.0  0.25880  0.06760  0.83570  1.0000
  H   H83       1.0  0.75880  0.43240  0.33570  1.0000
  H   H84       1.0  0.74120  0.93240  0.16430  1.0000
  C   C169      1.0  0.84270  0.53170  0.63800  1.0000
  C   C170      1.0  0.65730  0.03170  0.86200  1.0000
  C   C171      1.0  0.15730  0.46830  0.36200  1.0000
  C   C172      1.0  0.34270  0.96830  0.13800  1.0000
  C   C173      1.0  0.47690  0.90730  0.26770  1.0000
  C   C174      1.0  0.02310  0.40730  0.23230  1.0000
  C   C175      1.0  0.52310  0.09270  0.73230  1.0000
  C   C176      1.0  0.97690  0.59270  0.76770  1.0000
  C   C177      1.0  0.10830  0.51100  0.61580  1.0000
  C   C178      1.0  0.39170  0.01100  0.88420  1.0000
  C   C179      1.0  0.89170  0.48900  0.38420  1.0000
  C   C180      1.0  0.60830  0.98900  0.11580  1.0000
  C   C181      1.0  0.69010  0.66020  0.55380  1.0000
  C   C182      1.0  0.80990  0.16020  0.94620  1.0000
  C   C183      1.0  0.30990  0.33980  0.44620  1.0000
  C   C184      1.0  0.19010  0.83980  0.05380  1.0000
  H   H85       1.0  0.68740  0.71280  0.52960  1.0000
  H   H86       1.0  0.81260  0.21280  0.97040  1.0000
  H   H87       1.0  0.31260  0.28720  0.47040  1.0000
  H   H88       1.0  0.18740  0.78720  0.02960  1.0000
  C   C185      1.0  0.52180  0.89090  0.35860  1.0000
  C   C186      1.0  0.97820  0.39090  0.14140  1.0000
  C   C187      1.0  0.47820  0.10910  0.64140  1.0000
  C   C188      1.0  0.02180  0.60910  0.85860  1.0000
  H   H89       1.0  0.55190  0.94910  0.35430  1.0000
  H   H90       1.0  0.94810  0.44910  0.14570  1.0000
  H   H91       1.0  0.44810  0.05090  0.64570  1.0000
  H   H92       1.0  0.05190  0.55090  0.85430  1.0000
  C   C189      1.0  0.76020  0.63640  0.57670  1.0000
  C   C190      1.0  0.73980  0.13640  0.92330  1.0000
  C   C191      1.0  0.23980  0.36360  0.42330  1.0000
  C   C192      1.0  0.26020  0.86360  0.07670  1.0000
  H   H93       1.0  0.80410  0.67150  0.56670  1.0000
  H   H94       1.0  0.69590  0.17150  0.93330  1.0000
  H   H95       1.0  0.19590  0.32850  0.43330  1.0000
  H   H96       1.0  0.30410  0.82850  0.06670  1.0000
  C   C193      1.0  0.52280  0.83980  0.40550  1.0000
  C   C194      1.0  0.97720  0.33980  0.09450  1.0000
  C   C195      1.0  0.47720  0.16020  0.59450  1.0000
  C   C196      1.0  0.02280  0.66020  0.90550  1.0000
  H   H97       1.0  0.55510  0.86360  0.43190  1.0000
  H   H98       1.0  0.94490  0.36360  0.06810  1.0000
  H   H99       1.0  0.44490  0.13640  0.56810  1.0000
  H   H100      1.0  0.05510  0.63640  0.93190  1.0000
  C   C197      1.0  0.69970  0.51460  0.62970  1.0000
  C   C198      1.0  0.80030  0.01460  0.87030  1.0000
  C   C199      1.0  0.30030  0.48540  0.37030  1.0000
  C   C200      1.0  0.19970  0.98540  0.12970  1.0000
  H   H101      1.0  0.70140  0.46650  0.65620  1.0000
  H   H102      1.0  0.79860  0.96650  0.84380  1.0000
  H   H103      1.0  0.29860  0.53350  0.34380  1.0000
  H   H104      1.0  0.20140  0.03350  0.15620  1.0000
  C   C201      1.0  0.20120  0.52470  0.54340  1.0000
  C   C202      1.0  0.29880  0.02470  0.95660  1.0000
  C   C203      1.0  0.79880  0.47530  0.45660  1.0000
  C   C204      1.0  0.70120  0.97530  0.04340  1.0000
  H   H105      1.0  0.16250  0.50040  0.52130  1.0000
  H   H106      1.0  0.33750  0.00040  0.97870  1.0000
  H   H107      1.0  0.83750  0.49960  0.47870  1.0000
  H   H108      1.0  0.66250  0.99960  0.02130  1.0000
  C   C205      1.0  0.62950  0.53850  0.60610  1.0000
  C   C206      1.0  0.87050  0.03850  0.89390  1.0000
  C   C207      1.0  0.37050  0.46150  0.39390  1.0000
  C   C208      1.0  0.12950  0.96150  0.10610  1.0000
  H   H109      1.0  0.58520  0.50680  0.61780  1.0000
  H   H110      1.0  0.91480  0.00680  0.88220  1.0000
  H   H111      1.0  0.41480  0.49320  0.38220  1.0000
  H   H112      1.0  0.08520  0.99320  0.11780  1.0000
  C   C209      1.0  0.42500  0.72710  0.37360  1.0000
  C   C210      1.0  0.07500  0.22710  0.12640  1.0000
  C   C211      1.0  0.57500  0.27290  0.62640  1.0000
  C   C212      1.0  0.92500  0.77290  0.87360  1.0000
  H   H113      1.0  0.38880  0.67580  0.37910  1.0000
  H   H114      1.0  0.11120  0.17580  0.12090  1.0000
  H   H115      1.0  0.61120  0.32420  0.62090  1.0000
  H   H116      1.0  0.88880  0.82420  0.87910  1.0000
  C   C213      1.0  0.42650  0.77540  0.32590  1.0000
  C   C214      1.0  0.07350  0.27540  0.17410  1.0000
  C   C215      1.0  0.57350  0.22460  0.67410  1.0000
  C   C216      1.0  0.92650  0.72460  0.82590  1.0000
  H   H117      1.0  0.39400  0.75370  0.29910  1.0000
  H   H118      1.0  0.10600  0.25370  0.20090  1.0000
  H   H119      1.0  0.60600  0.24630  0.70090  1.0000
  H   H120      1.0  0.89400  0.74630  0.79910  1.0000
