data_image0
_chemical_formula_structural       O8C8O8C24H8Pr4C8H8C8H8O8H16C16H8N8O16C24H8C8H8C8H8
_chemical_formula_sum              "O40 C104 H72 Pr4 N8"
_cell_length_a       23.7
_cell_length_b       11.49
_cell_length_c       11.984
_cell_angle_alpha    90
_cell_angle_beta     119.99
_cell_angle_gamma    90

_space_group_name_H-M_alt    "P 1"
_space_group_IT_number       1

loop_
  _space_group_symop_operation_xyz
  'x, y, z'

loop_
  _atom_site_type_symbol
  _atom_site_label
  _atom_site_symmetry_multiplicity
  _atom_site_fract_x
  _atom_site_fract_y
  _atom_site_fract_z
  _atom_site_occupancy
  O   O1        1.0  0.00940  0.16840  0.08100  1.0000
  O   O2        1.0  0.99060  0.16840  0.41900  1.0000
  O   O3        1.0  0.50940  0.66840  0.08100  1.0000
  O   O4        1.0  0.49060  0.66840  0.41900  1.0000
  O   O5        1.0  0.99060  0.83160  0.91900  1.0000
  O   O6        1.0  0.00940  0.83160  0.58100  1.0000
  O   O7        1.0  0.49060  0.33160  0.91900  1.0000
  O   O8        1.0  0.50940  0.33160  0.58100  1.0000
  C   C1        1.0  0.04840  0.25060  0.09750  1.0000
  C   C2        1.0  0.95160  0.25060  0.40250  1.0000
  C   C3        1.0  0.54840  0.75060  0.09750  1.0000
  C   C4        1.0  0.45160  0.75060  0.40250  1.0000
  C   C5        1.0  0.95160  0.74940  0.90250  1.0000
  C   C6        1.0  0.04840  0.74940  0.59750  1.0000
  C   C7        1.0  0.45160  0.24940  0.90250  1.0000
  C   C8        1.0  0.54840  0.24940  0.59750  1.0000
  O   O9        1.0  0.40190  0.49140  0.07070  1.0000
  O   O10       1.0  0.59810  0.49140  0.42930  1.0000
  O   O11       1.0  0.90190  0.99140  0.07070  1.0000
  O   O12       1.0  0.09810  0.99140  0.42930  1.0000
  O   O13       1.0  0.59810  0.50860  0.92930  1.0000
  O   O14       1.0  0.40190  0.50860  0.57070  1.0000
  O   O15       1.0  0.09810  0.00860  0.92930  1.0000
  O   O16       1.0  0.90190  0.00860  0.57070  1.0000
  C   C9        1.0  0.36180  0.40870  0.03990  1.0000
  C   C10       1.0  0.63820  0.40870  0.46010  1.0000
  C   C11       1.0  0.86180  0.90870  0.03990  1.0000
  C   C12       1.0  0.13820  0.90870  0.46010  1.0000
  C   C13       1.0  0.63820  0.59130  0.96010  1.0000
  C   C14       1.0  0.36180  0.59130  0.53990  1.0000
  C   C15       1.0  0.13820  0.09130  0.96010  1.0000
  C   C16       1.0  0.86180  0.09130  0.53990  1.0000
  C   C17       1.0  0.31260  0.39200  0.89730  1.0000
  C   C18       1.0  0.68740  0.39200  0.60270  1.0000
  C   C19       1.0  0.81260  0.89200  0.89730  1.0000
  C   C20       1.0  0.18740  0.89200  0.60270  1.0000
  C   C21       1.0  0.68740  0.60800  0.10270  1.0000
  C   C22       1.0  0.31260  0.60800  0.39730  1.0000
  C   C23       1.0  0.18740  0.10800  0.10270  1.0000
  C   C24       1.0  0.81260  0.10800  0.39730  1.0000
  C   C25       1.0  0.26400  0.30990  0.85750  1.0000
  C   C26       1.0  0.73600  0.30990  0.64250  1.0000
  C   C27       1.0  0.76400  0.80990  0.85750  1.0000
  C   C28       1.0  0.23600  0.80990  0.64250  1.0000
  C   C29       1.0  0.73600  0.69010  0.14250  1.0000
  C   C30       1.0  0.26400  0.69010  0.35750  1.0000
  C   C31       1.0  0.23600  0.19010  0.14250  1.0000
  C   C32       1.0  0.76400  0.19010  0.35750  1.0000
  H   H1        1.0  0.26060  0.26480  0.91830  1.0000
  H   H2        1.0  0.73940  0.26480  0.58170  1.0000
  H   H3        1.0  0.76060  0.76480  0.91830  1.0000
  H   H4        1.0  0.23940  0.76480  0.58170  1.0000
  H   H5        1.0  0.73940  0.73520  0.08170  1.0000
  H   H6        1.0  0.26060  0.73520  0.41830  1.0000
  H   H7        1.0  0.23940  0.23520  0.08170  1.0000
  H   H8        1.0  0.76060  0.23520  0.41830  1.0000
  Pr  Pr1       1.0  1.00000  0.06421  0.25000  1.0000
  Pr  Pr2       1.0  0.50000  0.56421  0.25000  1.0000
  Pr  Pr3       1.0  0.00000  0.93579  0.75000  1.0000
  Pr  Pr4       1.0  0.50000  0.43579  0.75000  1.0000
  C   C33       1.0  0.14730  0.36260  0.26900  1.0000
  C   C34       1.0  0.85270  0.36260  0.23100  1.0000
  C   C35       1.0  0.64730  0.86260  0.26900  1.0000
  C   C36       1.0  0.35270  0.86260  0.23100  1.0000
  C   C37       1.0  0.85270  0.63740  0.73100  1.0000
  C   C38       1.0  0.14730  0.63740  0.76900  1.0000
  C   C39       1.0  0.35270  0.13740  0.73100  1.0000
  C   C40       1.0  0.64730  0.13740  0.76900  1.0000
  H   H9        1.0  0.15310  0.39760  0.20560  1.0000
  H   H10       1.0  0.84690  0.39760  0.29440  1.0000
  H   H11       1.0  0.65310  0.89760  0.20560  1.0000
  H   H12       1.0  0.34690  0.89760  0.29440  1.0000
  H   H13       1.0  0.84690  0.60240  0.79440  1.0000
  H   H14       1.0  0.15310  0.60240  0.70560  1.0000
  H   H15       1.0  0.34690  0.10240  0.79440  1.0000
  H   H16       1.0  0.65310  0.10240  0.70560  1.0000
  C   C41       1.0  0.18940  0.38760  0.39790  1.0000
  C   C42       1.0  0.81060  0.38760  0.10210  1.0000
  C   C43       1.0  0.68940  0.88760  0.39790  1.0000
  C   C44       1.0  0.31060  0.88760  0.10210  1.0000
  C   C45       1.0  0.81060  0.61240  0.60210  1.0000
  C   C46       1.0  0.18940  0.61240  0.89790  1.0000
  C   C47       1.0  0.31060  0.11240  0.60210  1.0000
  C   C48       1.0  0.68940  0.11240  0.89790  1.0000
  H   H17       1.0  0.22450  0.43760  0.42150  1.0000
  H   H18       1.0  0.77550  0.43760  0.07850  1.0000
  H   H19       1.0  0.72450  0.93760  0.42150  1.0000
  H   H20       1.0  0.27550  0.93760  0.07850  1.0000
  H   H21       1.0  0.77550  0.56240  0.57850  1.0000
  H   H22       1.0  0.22450  0.56240  0.92150  1.0000
  H   H23       1.0  0.27550  0.06240  0.57850  1.0000
  H   H24       1.0  0.72450  0.06240  0.92150  1.0000
  O   O17       1.0  0.04000  0.90970  0.16780  1.0000
  O   O18       1.0  0.96000  0.90970  0.33220  1.0000
  O   O19       1.0  0.54000  0.40970  0.16780  1.0000
  O   O20       1.0  0.46000  0.40970  0.33220  1.0000
  O   O21       1.0  0.96000  0.09030  0.83220  1.0000
  O   O22       1.0  0.04000  0.09030  0.66780  1.0000
  O   O23       1.0  0.46000  0.59030  0.83220  1.0000
  O   O24       1.0  0.54000  0.59030  0.66780  1.0000
  H   H25       1.0  0.01080  0.86650  0.09640  1.0000
  H   H26       1.0  0.98920  0.86650  0.40360  1.0000
  H   H27       1.0  0.51080  0.36650  0.09640  1.0000
  H   H28       1.0  0.48920  0.36650  0.40360  1.0000
  H   H29       1.0  0.98920  0.13350  0.90360  1.0000
  H   H30       1.0  0.01080  0.13350  0.59640  1.0000
  H   H31       1.0  0.48920  0.63350  0.90360  1.0000
  H   H32       1.0  0.51080  0.63350  0.59640  1.0000
  H   H33       1.0  0.08440  0.89400  0.20790  1.0000
  H   H34       1.0  0.91560  0.89400  0.29210  1.0000
  H   H35       1.0  0.58440  0.39400  0.20790  1.0000
  H   H36       1.0  0.41560  0.39400  0.29210  1.0000
  H   H37       1.0  0.91560  0.10600  0.79210  1.0000
  H   H38       1.0  0.08440  0.10600  0.70790  1.0000
  H   H39       1.0  0.41560  0.60600  0.79210  1.0000
  H   H40       1.0  0.58440  0.60600  0.70790  1.0000
  C   C49       1.0  0.22380  0.36040  0.63300  1.0000
  C   C50       1.0  0.77620  0.36040  0.86700  1.0000
  C   C51       1.0  0.72380  0.86040  0.63300  1.0000
  C   C52       1.0  0.27620  0.86040  0.86700  1.0000
  C   C53       1.0  0.77620  0.63960  0.36700  1.0000
  C   C54       1.0  0.22380  0.63960  0.13300  1.0000
  C   C55       1.0  0.27620  0.13960  0.36700  1.0000
  C   C56       1.0  0.72380  0.13960  0.13300  1.0000
  C   C57       1.0  0.12710  0.26110  0.45000  1.0000
  C   C58       1.0  0.87290  0.26110  0.05000  1.0000
  C   C59       1.0  0.62710  0.76110  0.45000  1.0000
  C   C60       1.0  0.37290  0.76110  0.05000  1.0000
  C   C61       1.0  0.87290  0.73890  0.55000  1.0000
  C   C62       1.0  0.12710  0.73890  0.95000  1.0000
  C   C63       1.0  0.37290  0.23890  0.55000  1.0000
  C   C64       1.0  0.62710  0.23890  0.95000  1.0000
  H   H41       1.0  0.12000  0.22510  0.51150  1.0000
  H   H42       1.0  0.88000  0.22510  0.98850  1.0000
  H   H43       1.0  0.62000  0.72510  0.51150  1.0000
  H   H44       1.0  0.38000  0.72510  0.98850  1.0000
  H   H45       1.0  0.88000  0.77490  0.48850  1.0000
  H   H46       1.0  0.12000  0.77490  0.01150  1.0000
  H   H47       1.0  0.38000  0.27490  0.48850  1.0000
  H   H48       1.0  0.62000  0.27490  0.01150  1.0000
  N   N1        1.0  0.08590  0.23560  0.32430  1.0000
  N   N2        1.0  0.91410  0.23560  0.17570  1.0000
  N   N3        1.0  0.58590  0.73560  0.32430  1.0000
  N   N4        1.0  0.41410  0.73560  0.17570  1.0000
  N   N5        1.0  0.91410  0.76440  0.67570  1.0000
  N   N6        1.0  0.08590  0.76440  0.82430  1.0000
  N   N7        1.0  0.41410  0.26440  0.67570  1.0000
  N   N8        1.0  0.58590  0.26440  0.82430  1.0000
  O   O25       1.0  0.35690  0.34190  0.11870  1.0000
  O   O26       1.0  0.64310  0.34190  0.38130  1.0000
  O   O27       1.0  0.85690  0.84190  0.11870  1.0000
  O   O28       1.0  0.14310  0.84190  0.38130  1.0000
  O   O29       1.0  0.64310  0.65810  0.88130  1.0000
  O   O30       1.0  0.35690  0.65810  0.61870  1.0000
  O   O31       1.0  0.14310  0.15810  0.88130  1.0000
  O   O32       1.0  0.85690  0.15810  0.61870  1.0000
  O   O33       1.0  0.05100  0.30700  0.01070  1.0000
  O   O34       1.0  0.94900  0.30700  0.48930  1.0000
  O   O35       1.0  0.55100  0.80700  0.01070  1.0000
  O   O36       1.0  0.44900  0.80700  0.48930  1.0000
  O   O37       1.0  0.94900  0.69300  0.98930  1.0000
  O   O38       1.0  0.05100  0.69300  0.51070  1.0000
  O   O39       1.0  0.44900  0.19300  0.98930  1.0000
  O   O40       1.0  0.55100  0.19300  0.51070  1.0000
  C   C65       1.0  0.09650  0.28510  0.23540  1.0000
  C   C66       1.0  0.90350  0.28510  0.26460  1.0000
  C   C67       1.0  0.59650  0.78510  0.23540  1.0000
  C   C68       1.0  0.40350  0.78510  0.26460  1.0000
  C   C69       1.0  0.90350  0.71490  0.76460  1.0000
  C   C70       1.0  0.09650  0.71490  0.73540  1.0000
  C   C71       1.0  0.40350  0.21490  0.76460  1.0000
  C   C72       1.0  0.59650  0.21490  0.73540  1.0000
  C   C73       1.0  0.17890  0.33740  0.49240  1.0000
  C   C74       1.0  0.82110  0.33740  0.00760  1.0000
  C   C75       1.0  0.67890  0.83740  0.49240  1.0000
  C   C76       1.0  0.32110  0.83740  0.00760  1.0000
  C   C77       1.0  0.82110  0.66260  0.50760  1.0000
  C   C78       1.0  0.17890  0.66260  0.99240  1.0000
  C   C79       1.0  0.32110  0.16260  0.50760  1.0000
  C   C80       1.0  0.67890  0.16260  0.99240  1.0000
  C   C81       1.0  0.27210  0.44360  0.67540  1.0000
  C   C82       1.0  0.72790  0.44360  0.82460  1.0000
  C   C83       1.0  0.77210  0.94360  0.67540  1.0000
  C   C84       1.0  0.22790  0.94360  0.82460  1.0000
  C   C85       1.0  0.72790  0.55640  0.32460  1.0000
  C   C86       1.0  0.27210  0.55640  0.17540  1.0000
  C   C87       1.0  0.22790  0.05640  0.32460  1.0000
  C   C88       1.0  0.77210  0.05640  0.17540  1.0000
  H   H49       1.0  0.27540  0.49020  0.61550  1.0000
  H   H50       1.0  0.72460  0.49020  0.88450  1.0000
  H   H51       1.0  0.77540  0.99020  0.61550  1.0000
  H   H52       1.0  0.22460  0.99020  0.88450  1.0000
  H   H53       1.0  0.72460  0.50980  0.38450  1.0000
  H   H54       1.0  0.27540  0.50980  0.11550  1.0000
  H   H55       1.0  0.22460  0.00980  0.38450  1.0000
  H   H56       1.0  0.77540  0.00980  0.11550  1.0000
  C   C89       1.0  0.31600  0.45940  0.80670  1.0000
  C   C90       1.0  0.68400  0.45940  0.69330  1.0000
  C   C91       1.0  0.81600  0.95940  0.80670  1.0000
  C   C92       1.0  0.18400  0.95940  0.69330  1.0000
  C   C93       1.0  0.68400  0.54060  0.19330  1.0000
  C   C94       1.0  0.31600  0.54060  0.30670  1.0000
  C   C95       1.0  0.18400  0.04060  0.19330  1.0000
  C   C96       1.0  0.81600  0.04060  0.30670  1.0000
  H   H57       1.0  0.34800  0.51640  0.83280  1.0000
  H   H58       1.0  0.65200  0.51640  0.66720  1.0000
  H   H59       1.0  0.84800  0.01640  0.83280  1.0000
  H   H60       1.0  0.15200  0.01640  0.66720  1.0000
  H   H61       1.0  0.65200  0.48360  0.16720  1.0000
  H   H62       1.0  0.34800  0.48360  0.33280  1.0000
  H   H63       1.0  0.15200  0.98360  0.16720  1.0000
  H   H64       1.0  0.84800  0.98360  0.33280  1.0000
  C   C97       1.0  0.21950  0.29370  0.72580  1.0000
  C   C98       1.0  0.78050  0.29370  0.77420  1.0000
  C   C99       1.0  0.71950  0.79370  0.72580  1.0000
  C   C100      1.0  0.28050  0.79370  0.77420  1.0000
  C   C101      1.0  0.78050  0.70630  0.27420  1.0000
  C   C102      1.0  0.21950  0.70630  0.22580  1.0000
  C   C103      1.0  0.28050  0.20630  0.27420  1.0000
  C   C104      1.0  0.71950  0.20630  0.22580  1.0000
  H   H65       1.0  0.18690  0.23800  0.70020  1.0000
  H   H66       1.0  0.81310  0.23800  0.79980  1.0000
  H   H67       1.0  0.68690  0.73800  0.70020  1.0000
  H   H68       1.0  0.31310  0.73800  0.79980  1.0000
  H   H69       1.0  0.81310  0.76200  0.29980  1.0000
  H   H70       1.0  0.18690  0.76200  0.20020  1.0000
  H   H71       1.0  0.31310  0.26200  0.29980  1.0000
  H   H72       1.0  0.68690  0.26200  0.20020  1.0000
