data_image0
_chemical_formula_structural       Ni4Br4O16C16H4C4H4C12H4C4H4C4H4C4H4C4
_chemical_formula_sum              "Ni4 Br4 O16 C48 H24"
_cell_length_a       10.0037
_cell_length_b       15.4731
_cell_length_c       11.1313
_cell_angle_alpha    90
_cell_angle_beta     92.14
_cell_angle_gamma    90

_space_group_name_H-M_alt    "P 1"
_space_group_IT_number       1

loop_
  _space_group_symop_operation_xyz
  'x, y, z'

loop_
  _atom_site_type_symbol
  _atom_site_label
  _atom_site_symmetry_multiplicity
  _atom_site_fract_x
  _atom_site_fract_y
  _atom_site_fract_z
  _atom_site_occupancy
  Ni  Ni1       1.0  0.39362  0.01488  0.41420  1.0000
  Ni  Ni2       1.0  0.10638  0.51488  0.08580  1.0000
  Ni  Ni3       1.0  0.60638  0.98512  0.58580  1.0000
  Ni  Ni4       1.0  0.89362  0.48512  0.91420  1.0000
  Br  Br1       1.0  0.21440  0.05304  0.27029  1.0000
  Br  Br2       1.0  0.28560  0.55304  0.22971  1.0000
  Br  Br3       1.0  0.78560  0.94696  0.72971  1.0000
  Br  Br4       1.0  0.71440  0.44696  0.77029  1.0000
  O   O1        1.0  0.53630  0.09250  0.34970  1.0000
  O   O2        1.0  0.96370  0.59250  0.15030  1.0000
  O   O3        1.0  0.46370  0.90750  0.65030  1.0000
  O   O4        1.0  0.03630  0.40750  0.84970  1.0000
  O   O5        1.0  0.70290  0.07111  0.48390  1.0000
  O   O6        1.0  0.79710  0.57111  0.01610  1.0000
  O   O7        1.0  0.29710  0.92889  0.51610  1.0000
  O   O8        1.0  0.20290  0.42889  0.98390  1.0000
  O   O9        1.0  0.86130  0.39470  0.04160  1.0000
  O   O10       1.0  0.63870  0.89470  0.45840  1.0000
  O   O11       1.0  0.13870  0.60530  0.95840  1.0000
  O   O12       1.0  0.36130  0.10530  0.54160  1.0000
  O   O13       1.0  0.02630  0.41530  0.17710  1.0000
  O   O14       1.0  0.47370  0.91530  0.32290  1.0000
  O   O15       1.0  0.97370  0.58470  0.82290  1.0000
  O   O16       1.0  0.52630  0.08470  0.67710  1.0000
  C   C1        1.0  0.64870  0.10880  0.39550  1.0000
  C   C2        1.0  0.85130  0.60880  0.10450  1.0000
  C   C3        1.0  0.35130  0.89120  0.60450  1.0000
  C   C4        1.0  0.14870  0.39120  0.89550  1.0000
  C   C5        1.0  0.92080  0.37990  0.13860  1.0000
  C   C6        1.0  0.57920  0.87990  0.36140  1.0000
  C   C7        1.0  0.07920  0.62010  0.86140  1.0000
  C   C8        1.0  0.42080  0.12010  0.63860  1.0000
  C   C9        1.0  0.72600  0.18050  0.33850  1.0000
  C   C10       1.0  0.77400  0.68050  0.16150  1.0000
  C   C11       1.0  0.27400  0.81950  0.66150  1.0000
  C   C12       1.0  0.22600  0.31950  0.83850  1.0000
  C   C13       1.0  0.84140  0.16280  0.27990  1.0000
  C   C14       1.0  0.65860  0.66280  0.22010  1.0000
  C   C15       1.0  0.15860  0.83720  0.72010  1.0000
  C   C16       1.0  0.34140  0.33720  0.77990  1.0000
  H   H1        1.0  0.87610  0.10710  0.28090  1.0000
  H   H2        1.0  0.62390  0.60710  0.21910  1.0000
  H   H3        1.0  0.12390  0.89290  0.71910  1.0000
  H   H4        1.0  0.37610  0.39290  0.78090  1.0000
  C   C17       1.0  0.90750  0.22920  0.21830  1.0000
  C   C18       1.0  0.59250  0.72920  0.28170  1.0000
  C   C19       1.0  0.09250  0.77080  0.78170  1.0000
  C   C20       1.0  0.40750  0.27080  0.71830  1.0000
  H   H5        1.0  0.98530  0.21640  0.17860  1.0000
  H   H6        1.0  0.51470  0.71640  0.32140  1.0000
  H   H7        1.0  0.01470  0.78360  0.82140  1.0000
  H   H8        1.0  0.48530  0.28360  0.67860  1.0000
  C   C21       1.0  0.85960  0.31100  0.21580  1.0000
  C   C22       1.0  0.64040  0.81100  0.28420  1.0000
  C   C23       1.0  0.14040  0.68900  0.78420  1.0000
  C   C24       1.0  0.35960  0.18900  0.71580  1.0000
  C   C25       1.0  0.74580  0.33340  0.28330  1.0000
  C   C26       1.0  0.75420  0.83340  0.21670  1.0000
  C   C27       1.0  0.25420  0.66660  0.71670  1.0000
  C   C28       1.0  0.24580  0.16660  0.78330  1.0000
  C   C29       1.0  0.69820  0.41830  0.29140  1.0000
  C   C30       1.0  0.80180  0.91830  0.20860  1.0000
  C   C31       1.0  0.30180  0.58170  0.70860  1.0000
  C   C32       1.0  0.19820  0.08170  0.79140  1.0000
  H   H9        1.0  0.74000  0.46190  0.24930  1.0000
  H   H10       1.0  0.76000  0.96190  0.25070  1.0000
  H   H11       1.0  0.26000  0.53810  0.75070  1.0000
  H   H12       1.0  0.24000  0.03810  0.74930  1.0000
  C   C33       1.0  0.59180  0.43870  0.35990  1.0000
  C   C34       1.0  0.90820  0.93870  0.14010  1.0000
  C   C35       1.0  0.40820  0.56130  0.64010  1.0000
  C   C36       1.0  0.09180  0.06130  0.85990  1.0000
  H   H13       1.0  0.56390  0.49570  0.36670  1.0000
  H   H14       1.0  0.93610  0.99570  0.13330  1.0000
  H   H15       1.0  0.43610  0.50430  0.63330  1.0000
  H   H16       1.0  0.06390  0.00430  0.86670  1.0000
  C   C37       1.0  0.52540  0.37270  0.41960  1.0000
  C   C38       1.0  0.97460  0.87270  0.08040  1.0000
  C   C39       1.0  0.47460  0.62730  0.58040  1.0000
  C   C40       1.0  0.02540  0.12730  0.91960  1.0000
  H   H17       1.0  0.45230  0.38630  0.46520  1.0000
  H   H18       1.0  0.04770  0.88630  0.03480  1.0000
  H   H19       1.0  0.54770  0.61370  0.53480  1.0000
  H   H20       1.0  0.95230  0.11370  0.96520  1.0000
  C   C41       1.0  0.56560  0.28910  0.41230  1.0000
  C   C42       1.0  0.93440  0.78910  0.08770  1.0000
  C   C43       1.0  0.43440  0.71090  0.58770  1.0000
  C   C44       1.0  0.06560  0.21090  0.91230  1.0000
  H   H21       1.0  0.51930  0.24640  0.45220  1.0000
  H   H22       1.0  0.98070  0.74640  0.04780  1.0000
  H   H23       1.0  0.48070  0.75360  0.54780  1.0000
  H   H24       1.0  0.01930  0.25360  0.95220  1.0000
  C   C45       1.0  0.67770  0.26630  0.34410  1.0000
  C   C46       1.0  0.82230  0.76630  0.15590  1.0000
  C   C47       1.0  0.32230  0.73370  0.65590  1.0000
  C   C48       1.0  0.17770  0.23370  0.84410  1.0000
