data_image0
_chemical_formula_structural       Cd8Cl4O48C8H4C8H4C8H4C20H4C8H4C8H4C12
_chemical_formula_sum              "Cd8 Cl4 O48 C72 H24"
_cell_length_a       9.9696
_cell_length_b       17.058
_cell_length_c       16.5263
_cell_angle_alpha    90
_cell_angle_beta     100.4
_cell_angle_gamma    90

_space_group_name_H-M_alt    "P 1"
_space_group_IT_number       1

loop_
  _space_group_symop_operation_xyz
  'x, y, z'

loop_
  _atom_site_type_symbol
  _atom_site_label
  _atom_site_symmetry_multiplicity
  _atom_site_fract_x
  _atom_site_fract_y
  _atom_site_fract_z
  _atom_site_occupancy
  Cd  Cd1       1.0  0.83968  0.19185  0.91825  1.0000
  Cd  Cd2       1.0  0.16032  0.69185  0.58175  1.0000
  Cd  Cd3       1.0  0.16032  0.80815  0.08175  1.0000
  Cd  Cd4       1.0  0.83968  0.30815  0.41825  1.0000
  Cd  Cd5       1.0  0.75474  0.19098  0.59935  1.0000
  Cd  Cd6       1.0  0.24526  0.69098  0.90065  1.0000
  Cd  Cd7       1.0  0.24526  0.80902  0.40065  1.0000
  Cd  Cd8       1.0  0.75474  0.30902  0.09935  1.0000
  Cl  Cl1       1.0  0.81956  0.20351  0.75695  1.0000
  Cl  Cl2       1.0  0.18044  0.70351  0.74305  1.0000
  Cl  Cl3       1.0  0.18044  0.79649  0.24305  1.0000
  Cl  Cl4       1.0  0.81956  0.29649  0.25695  1.0000
  O   O1        1.0  0.99360  0.09740  0.92630  1.0000
  O   O2        1.0  0.00640  0.59740  0.57370  1.0000
  O   O3        1.0  0.00640  0.90260  0.07370  1.0000
  O   O4        1.0  0.99360  0.40260  0.42630  1.0000
  O   O5        1.0  0.12460  0.19975  0.91430  1.0000
  O   O6        1.0  0.87540  0.69975  0.58570  1.0000
  O   O7        1.0  0.87540  0.80025  0.08570  1.0000
  O   O8        1.0  0.12460  0.30025  0.41430  1.0000
  O   O9        1.0  0.17380  0.82961  0.93660  1.0000
  O   O10       1.0  0.82620  0.32961  0.56340  1.0000
  O   O11       1.0  0.82620  0.17039  0.06340  1.0000
  O   O12       1.0  0.17380  0.67039  0.43660  1.0000
  O   O13       1.0  0.37510  0.80742  0.90450  1.0000
  O   O14       1.0  0.62490  0.30742  0.59550  1.0000
  O   O15       1.0  0.62490  0.19258  0.09550  1.0000
  O   O16       1.0  0.37510  0.69258  0.40450  1.0000
  O   O17       1.0  0.67980  0.03108  0.86930  1.0000
  O   O18       1.0  0.32020  0.53108  0.63070  1.0000
  O   O19       1.0  0.32020  0.96892  0.13070  1.0000
  O   O20       1.0  0.67980  0.46892  0.36930  1.0000
  O   O21       1.0  0.61760  0.15183  0.89720  1.0000
  O   O22       1.0  0.38240  0.65183  0.60280  1.0000
  O   O23       1.0  0.38240  0.84817  0.10280  1.0000
  O   O24       1.0  0.61760  0.34817  0.39720  1.0000
  O   O25       1.0  0.54160  0.14667  0.58920  1.0000
  O   O26       1.0  0.45840  0.64667  0.91080  1.0000
  O   O27       1.0  0.45840  0.85333  0.41080  1.0000
  O   O28       1.0  0.54160  0.35333  0.08920  1.0000
  O   O29       1.0  0.61850  0.02700  0.62080  1.0000
  O   O30       1.0  0.38150  0.52700  0.87920  1.0000
  O   O31       1.0  0.38150  0.97300  0.37920  1.0000
  O   O32       1.0  0.61850  0.47300  0.12080  1.0000
  O   O33       1.0  0.04450  0.20071  0.60710  1.0000
  O   O34       1.0  0.95550  0.70071  0.89290  1.0000
  O   O35       1.0  0.95550  0.79929  0.39290  1.0000
  O   O36       1.0  0.04450  0.29929  0.10710  1.0000
  O   O37       1.0  0.90780  0.09700  0.59880  1.0000
  O   O38       1.0  0.09220  0.59700  0.90120  1.0000
  O   O39       1.0  0.09220  0.90300  0.40120  1.0000
  O   O40       1.0  0.90780  0.40300  0.09880  1.0000
  O   O41       1.0  0.08000  0.82896  0.59290  1.0000
  O   O42       1.0  0.92000  0.32896  0.90710  1.0000
  O   O43       1.0  0.92000  0.17104  0.40710  1.0000
  O   O44       1.0  0.08000  0.67104  0.09290  1.0000
  O   O45       1.0  0.27020  0.80920  0.54719  1.0000
  O   O46       1.0  0.72980  0.30920  0.95281  1.0000
  O   O47       1.0  0.72980  0.19080  0.45281  1.0000
  O   O48       1.0  0.27020  0.69080  0.04719  1.0000
  C   C1        1.0  0.22210  0.07290  0.91230  1.0000
  C   C2        1.0  0.77790  0.57290  0.58770  1.0000
  C   C3        1.0  0.77790  0.92710  0.08770  1.0000
  C   C4        1.0  0.22210  0.42710  0.41230  1.0000
  C   C5        1.0  0.20510  0.99270  0.92240  1.0000
  C   C6        1.0  0.79490  0.49270  0.57760  1.0000
  C   C7        1.0  0.79490  0.00730  0.07760  1.0000
  C   C8        1.0  0.20510  0.50730  0.42240  1.0000
  H   H1        1.0  0.12340  0.97390  0.93450  1.0000
  H   H2        1.0  0.87660  0.47390  0.56550  1.0000
  H   H3        1.0  0.87660  0.02610  0.06550  1.0000
  H   H4        1.0  0.12340  0.52610  0.43450  1.0000
  C   C9        1.0  0.30950  0.94010  0.91460  1.0000
  C   C10       1.0  0.69050  0.44010  0.58540  1.0000
  C   C11       1.0  0.69050  0.05990  0.08540  1.0000
  C   C12       1.0  0.30950  0.55990  0.41460  1.0000
  C   C13       1.0  0.43330  0.96940  0.90030  1.0000
  C   C14       1.0  0.56670  0.46940  0.59970  1.0000
  C   C15       1.0  0.56670  0.03060  0.09970  1.0000
  C   C16       1.0  0.43330  0.53060  0.40030  1.0000
  H   H5        1.0  0.50330  0.93480  0.89530  1.0000
  H   H6        1.0  0.49670  0.43480  0.60470  1.0000
  H   H7        1.0  0.49670  0.06520  0.10470  1.0000
  H   H8        1.0  0.50330  0.56520  0.39530  1.0000
  C   C17       1.0  0.45450  0.04940  0.89330  1.0000
  C   C18       1.0  0.54550  0.54940  0.60670  1.0000
  C   C19       1.0  0.54550  0.95060  0.10670  1.0000
  C   C20       1.0  0.45450  0.45060  0.39330  1.0000
  C   C21       1.0  0.34760  0.10070  0.89800  1.0000
  C   C22       1.0  0.65240  0.60070  0.60200  1.0000
  C   C23       1.0  0.65240  0.89930  0.10200  1.0000
  C   C24       1.0  0.34760  0.39930  0.39800  1.0000
  H   H9        1.0  0.35990  0.15420  0.89160  1.0000
  H   H10       1.0  0.64010  0.65420  0.60840  1.0000
  H   H11       1.0  0.64010  0.84580  0.10840  1.0000
  H   H12       1.0  0.35990  0.34580  0.39160  1.0000
  C   C25       1.0  0.10600  0.12760  0.91760  1.0000
  C   C26       1.0  0.89400  0.62760  0.58240  1.0000
  C   C27       1.0  0.89400  0.87240  0.08240  1.0000
  C   C28       1.0  0.10600  0.37240  0.41760  1.0000
  C   C29       1.0  0.28590  0.85400  0.91980  1.0000
  C   C30       1.0  0.71410  0.35400  0.58020  1.0000
  C   C31       1.0  0.71410  0.14600  0.08020  1.0000
  C   C32       1.0  0.28590  0.64600  0.41980  1.0000
  C   C33       1.0  0.59440  0.07960  0.88460  1.0000
  C   C34       1.0  0.40560  0.57960  0.61540  1.0000
  C   C35       1.0  0.40560  0.92040  0.11540  1.0000
  C   C36       1.0  0.59440  0.42040  0.38460  1.0000
  C   C37       1.0  0.37980  0.04730  0.59770  1.0000
  C   C38       1.0  0.62020  0.54730  0.90230  1.0000
  C   C39       1.0  0.62020  0.95270  0.40230  1.0000
  C   C40       1.0  0.37980  0.45270  0.09770  1.0000
  C   C41       1.0  0.27460  0.10030  0.60130  1.0000
  C   C42       1.0  0.72540  0.60030  0.89870  1.0000
  C   C43       1.0  0.72540  0.89970  0.39870  1.0000
  C   C44       1.0  0.27460  0.39970  0.10130  1.0000
  H   H13       1.0  0.29310  0.15370  0.60560  1.0000
  H   H14       1.0  0.70690  0.65370  0.89440  1.0000
  H   H15       1.0  0.70690  0.84630  0.39440  1.0000
  H   H16       1.0  0.29310  0.34630  0.10560  1.0000
  C   C45       1.0  0.14100  0.07340  0.59850  1.0000
  C   C46       1.0  0.85900  0.57340  0.90150  1.0000
  C   C47       1.0  0.85900  0.92660  0.40150  1.0000
  C   C48       1.0  0.14100  0.42660  0.09850  1.0000
  C   C49       1.0  0.11440  0.99390  0.58920  1.0000
  C   C50       1.0  0.88560  0.49390  0.91080  1.0000
  C   C51       1.0  0.88560  0.00610  0.41080  1.0000
  C   C52       1.0  0.11440  0.50610  0.08920  1.0000
  H   H17       1.0  0.02570  0.97570  0.58640  1.0000
  H   H18       1.0  0.97430  0.47570  0.91360  1.0000
  H   H19       1.0  0.97430  0.02430  0.41360  1.0000
  H   H20       1.0  0.02570  0.52430  0.08640  1.0000
  C   C53       1.0  0.22000  0.94050  0.58410  1.0000
  C   C54       1.0  0.78000  0.44050  0.91590  1.0000
  C   C55       1.0  0.78000  0.05950  0.41590  1.0000
  C   C56       1.0  0.22000  0.55950  0.08410  1.0000
  C   C57       1.0  0.35040  0.96770  0.58780  1.0000
  C   C58       1.0  0.64960  0.46770  0.91220  1.0000
  C   C59       1.0  0.64960  0.03230  0.41220  1.0000
  C   C60       1.0  0.35040  0.53230  0.08780  1.0000
  H   H21       1.0  0.42000  0.93250  0.58360  1.0000
  H   H22       1.0  0.58000  0.43250  0.91640  1.0000
  H   H23       1.0  0.58000  0.06750  0.41640  1.0000
  H   H24       1.0  0.42000  0.56750  0.08360  1.0000
  C   C61       1.0  0.52490  0.07490  0.60350  1.0000
  C   C62       1.0  0.47510  0.57490  0.89650  1.0000
  C   C63       1.0  0.47510  0.92510  0.39650  1.0000
  C   C64       1.0  0.52490  0.42510  0.10350  1.0000
  C   C65       1.0  0.02450  0.12950  0.60220  1.0000
  C   C66       1.0  0.97550  0.62950  0.89780  1.0000
  C   C67       1.0  0.97550  0.87050  0.39780  1.0000
  C   C68       1.0  0.02450  0.37050  0.10220  1.0000
  C   C69       1.0  0.18700  0.85520  0.57370  1.0000
  C   C70       1.0  0.81300  0.35520  0.92630  1.0000
  C   C71       1.0  0.81300  0.14480  0.42630  1.0000
  C   C72       1.0  0.18700  0.64480  0.07370  1.0000
