data_image0
_chemical_formula_structural       Na4N4C4H4C4H4C8H4C4H4N4C4H4C4H4C8H4C4H4N4C4H4C4H4C8H4C4H4N4C4H4C4H4C8H4C4H4
_chemical_formula_sum              "Na4 N16 C80 H64"
_cell_length_a       9.7528
_cell_length_b       16.1943
_cell_length_c       17.2751
_cell_angle_alpha    90
_cell_angle_beta     104.763
_cell_angle_gamma    90

_space_group_name_H-M_alt    "P 1"
_space_group_IT_number       1

loop_
  _space_group_symop_operation_xyz
  'x, y, z'

loop_
  _atom_site_type_symbol
  _atom_site_label
  _atom_site_symmetry_multiplicity
  _atom_site_fract_x
  _atom_site_fract_y
  _atom_site_fract_z
  _atom_site_occupancy
  Na  Na1       1.0  0.70027  0.13524  0.23277  1.0000
  Na  Na2       1.0  0.29973  0.63524  0.26723  1.0000
  Na  Na3       1.0  0.29973  0.86476  0.76723  1.0000
  Na  Na4       1.0  0.70027  0.36476  0.73277  1.0000
  N   N1        1.0  0.90379  0.18470  0.33038  1.0000
  N   N2        1.0  0.09621  0.68470  0.16962  1.0000
  N   N3        1.0  0.09621  0.81530  0.66962  1.0000
  N   N4        1.0  0.90379  0.31530  0.83038  1.0000
  C   C1        1.0  0.02149  0.22123  0.31816  1.0000
  C   C2        1.0  0.97851  0.72123  0.18184  1.0000
  C   C3        1.0  0.97851  0.77877  0.68184  1.0000
  C   C4        1.0  0.02149  0.27877  0.81816  1.0000
  H   H1        1.0  0.02200  0.23330  0.26440  1.0000
  H   H2        1.0  0.97800  0.73330  0.23560  1.0000
  H   H3        1.0  0.97800  0.76670  0.73560  1.0000
  H   H4        1.0  0.02200  0.26670  0.76440  1.0000
  C   C5        1.0  0.13942  0.24223  0.37657  1.0000
  C   C6        1.0  0.86058  0.74223  0.12343  1.0000
  C   C7        1.0  0.86058  0.75777  0.62343  1.0000
  C   C8        1.0  0.13942  0.25777  0.87657  1.0000
  H   H5        1.0  0.21770  0.26700  0.36220  1.0000
  H   H6        1.0  0.78230  0.76700  0.13780  1.0000
  H   H7        1.0  0.78230  0.73300  0.63780  1.0000
  H   H8        1.0  0.21770  0.23300  0.86220  1.0000
  C   C9        1.0  0.14639  0.22743  0.45888  1.0000
  C   C10       1.0  0.85361  0.72743  0.04112  1.0000
  C   C11       1.0  0.85361  0.77257  0.54112  1.0000
  C   C12       1.0  0.14639  0.27257  0.95888  1.0000
  C   C13       1.0  0.02260  0.18892  0.47132  1.0000
  C   C14       1.0  0.97740  0.68892  0.02868  1.0000
  C   C15       1.0  0.97740  0.81108  0.52868  1.0000
  C   C16       1.0  0.02260  0.31108  0.97132  1.0000
  H   H9        1.0  0.01790  0.17630  0.52430  1.0000
  H   H10       1.0  0.98210  0.67630  0.97570  1.0000
  H   H11       1.0  0.98210  0.82370  0.47570  1.0000
  H   H12       1.0  0.01790  0.32370  0.02430  1.0000
  C   C17       1.0  0.91022  0.16969  0.40841  1.0000
  C   C18       1.0  0.08978  0.66969  0.09159  1.0000
  C   C19       1.0  0.08978  0.83031  0.59159  1.0000
  C   C20       1.0  0.91022  0.33031  0.90841  1.0000
  H   H13       1.0  0.83060  0.14380  0.42030  1.0000
  H   H14       1.0  0.16940  0.64380  0.07970  1.0000
  H   H15       1.0  0.16940  0.85620  0.57970  1.0000
  H   H16       1.0  0.83060  0.35620  0.92030  1.0000
  N   N5        1.0  0.81024  0.06907  0.14139  1.0000
  N   N6        1.0  0.18976  0.56907  0.35861  1.0000
  N   N7        1.0  0.18976  0.93093  0.85861  1.0000
  N   N8        1.0  0.81024  0.43093  0.64139  1.0000
  C   C21       1.0  0.81250  0.98936  0.11839  1.0000
  C   C22       1.0  0.18750  0.48936  0.38161  1.0000
  C   C23       1.0  0.18750  0.01064  0.88161  1.0000
  C   C24       1.0  0.81250  0.51064  0.61839  1.0000
  H   H17       1.0  0.75990  0.95080  0.14070  1.0000
  H   H18       1.0  0.24010  0.45080  0.35930  1.0000
  H   H19       1.0  0.24010  0.04920  0.85930  1.0000
  H   H20       1.0  0.75990  0.54920  0.64070  1.0000
  C   C25       1.0  0.88428  0.95949  0.06564  1.0000
  C   C26       1.0  0.11572  0.45949  0.43436  1.0000
  C   C27       1.0  0.11572  0.04051  0.93436  1.0000
  C   C28       1.0  0.88428  0.54051  0.56564  1.0000
  H   H21       1.0  0.88060  0.90220  0.05340  1.0000
  H   H22       1.0  0.11940  0.40220  0.44660  1.0000
  H   H23       1.0  0.11940  0.09780  0.94660  1.0000
  H   H24       1.0  0.88060  0.59780  0.55340  1.0000
  C   C29       1.0  0.96439  0.01352  0.02891  1.0000
  C   C30       1.0  0.03561  0.51352  0.47109  1.0000
  C   C31       1.0  0.03561  0.98648  0.97109  1.0000
  C   C32       1.0  0.96439  0.48648  0.52891  1.0000
  C   C33       1.0  0.96529  0.09714  0.05499  1.0000
  C   C34       1.0  0.03471  0.59714  0.44501  1.0000
  C   C35       1.0  0.03471  0.90286  0.94501  1.0000
  C   C36       1.0  0.96529  0.40286  0.55499  1.0000
  H   H25       1.0  0.01900  0.13730  0.03530  1.0000
  H   H26       1.0  0.98100  0.63730  0.46470  1.0000
  H   H27       1.0  0.98100  0.86270  0.96470  1.0000
  H   H28       1.0  0.01900  0.36270  0.53530  1.0000
  C   C37       1.0  0.88938  0.12008  0.10823  1.0000
  C   C38       1.0  0.11062  0.62008  0.39177  1.0000
  C   C39       1.0  0.11062  0.87992  0.89177  1.0000
  C   C40       1.0  0.88938  0.37992  0.60823  1.0000
  H   H29       1.0  0.89260  0.17670  0.12310  1.0000
  H   H30       1.0  0.10740  0.67670  0.37690  1.0000
  H   H31       1.0  0.10740  0.82330  0.87690  1.0000
  H   H32       1.0  0.89260  0.32330  0.62310  1.0000
  N   N9        1.0  0.58825  0.06555  0.31983  1.0000
  N   N10       1.0  0.41175  0.56555  0.18017  1.0000
  N   N11       1.0  0.41175  0.93445  0.68017  1.0000
  N   N12       1.0  0.58825  0.43445  0.81983  1.0000
  C   C41       1.0  0.63731  0.99470  0.35851  1.0000
  C   C42       1.0  0.36269  0.49470  0.14149  1.0000
  C   C43       1.0  0.36269  0.00530  0.64149  1.0000
  C   C44       1.0  0.63731  0.50530  0.85851  1.0000
  H   H33       1.0  0.69670  0.96110  0.33570  1.0000
  H   H34       1.0  0.30330  0.46110  0.16430  1.0000
  H   H35       1.0  0.30330  0.03890  0.66430  1.0000
  H   H36       1.0  0.69670  0.53890  0.83570  1.0000
  C   C45       1.0  0.60873  0.96730  0.42747  1.0000
  C   C46       1.0  0.39127  0.46730  0.07253  1.0000
  C   C47       1.0  0.39127  0.03270  0.57253  1.0000
  C   C48       1.0  0.60873  0.53270  0.92747  1.0000
  H   H37       1.0  0.64900  0.91690  0.45080  1.0000
  H   H38       1.0  0.35100  0.41690  0.04920  1.0000
  H   H39       1.0  0.35100  0.08310  0.54920  1.0000
  H   H40       1.0  0.64900  0.58310  0.95080  1.0000
  C   C49       1.0  0.51915  0.01360  0.46489  1.0000
  C   C50       1.0  0.48085  0.51360  0.03511  1.0000
  C   C51       1.0  0.48085  0.98640  0.53511  1.0000
  C   C52       1.0  0.51915  0.48640  0.96489  1.0000
  C   C53       1.0  0.46937  0.08880  0.42495  1.0000
  C   C54       1.0  0.53063  0.58880  0.07505  1.0000
  C   C55       1.0  0.53063  0.91120  0.57505  1.0000
  C   C56       1.0  0.46937  0.41120  0.92495  1.0000
  H   H41       1.0  0.41040  0.12430  0.44620  1.0000
  H   H42       1.0  0.58960  0.62430  0.05380  1.0000
  H   H43       1.0  0.58960  0.87570  0.55380  1.0000
  H   H44       1.0  0.41040  0.37570  0.94620  1.0000
  C   C57       1.0  0.50550  0.11041  0.35645  1.0000
  C   C58       1.0  0.49450  0.61041  0.14355  1.0000
  C   C59       1.0  0.49450  0.88959  0.64355  1.0000
  C   C60       1.0  0.50550  0.38959  0.85645  1.0000
  H   H45       1.0  0.46960  0.16130  0.33230  1.0000
  H   H46       1.0  0.53040  0.66130  0.16770  1.0000
  H   H47       1.0  0.53040  0.83870  0.66770  1.0000
  H   H48       1.0  0.46960  0.33870  0.83230  1.0000
  N   N13       1.0  0.51569  0.28363  0.64962  1.0000
  N   N14       1.0  0.48431  0.78363  0.85038  1.0000
  N   N15       1.0  0.48431  0.71637  0.35038  1.0000
  N   N16       1.0  0.51569  0.21637  0.14962  1.0000
  C   C61       1.0  0.50655  0.30006  0.57165  1.0000
  C   C62       1.0  0.49345  0.80006  0.92835  1.0000
  C   C63       1.0  0.49345  0.69994  0.42835  1.0000
  C   C64       1.0  0.50655  0.19994  0.07165  1.0000
  H   H49       1.0  0.58720  0.32390  0.55910  1.0000
  H   H50       1.0  0.41280  0.82390  0.94090  1.0000
  H   H51       1.0  0.41280  0.67610  0.44090  1.0000
  H   H52       1.0  0.58720  0.17610  0.05910  1.0000
  C   C65       1.0  0.39076  0.28509  0.50945  1.0000
  C   C66       1.0  0.60924  0.78509  0.99055  1.0000
  C   C67       1.0  0.60924  0.71491  0.49055  1.0000
  C   C68       1.0  0.39076  0.21491  0.00945  1.0000
  H   H53       1.0  0.39390  0.29910  0.45650  1.0000
  H   H54       1.0  0.60610  0.79910  0.04350  1.0000
  H   H55       1.0  0.60610  0.70090  0.54350  1.0000
  H   H56       1.0  0.39390  0.20090  0.95650  1.0000
  C   C69       1.0  0.26582  0.24886  0.52258  1.0000
  C   C70       1.0  0.73418  0.74886  0.97742  1.0000
  C   C71       1.0  0.73418  0.75114  0.47742  1.0000
  C   C72       1.0  0.26582  0.25114  0.02258  1.0000
  C   C73       1.0  0.27377  0.23448  0.60493  1.0000
  C   C74       1.0  0.72623  0.73448  0.89507  1.0000
  C   C75       1.0  0.72623  0.76552  0.39507  1.0000
  C   C76       1.0  0.27377  0.26552  0.10493  1.0000
  H   H57       1.0  0.19370  0.21280  0.61990  1.0000
  H   H58       1.0  0.80630  0.71280  0.88010  1.0000
  H   H59       1.0  0.80630  0.78720  0.38010  1.0000
  H   H60       1.0  0.19370  0.28720  0.11990  1.0000
  C   C77       1.0  0.39495  0.25147  0.66275  1.0000
  C   C78       1.0  0.60505  0.75147  0.83725  1.0000
  C   C79       1.0  0.60505  0.74853  0.33725  1.0000
  C   C80       1.0  0.39495  0.24853  0.16275  1.0000
  H   H61       1.0  0.39470  0.23980  0.71660  1.0000
  H   H62       1.0  0.60530  0.73980  0.78340  1.0000
  H   H63       1.0  0.60530  0.76020  0.28340  1.0000
  H   H64       1.0  0.39470  0.26020  0.21660  1.0000
