data_image0
_chemical_formula_structural       Zn4O32C40H8
_chemical_formula_sum              "Zn4 O32 C40 H8"
_cell_length_a       11.555
_cell_length_b       15.3
_cell_length_c       11.072
_cell_angle_alpha    90
_cell_angle_beta     91.97
_cell_angle_gamma    90

_space_group_name_H-M_alt    "P 1"
_space_group_IT_number       1

loop_
  _space_group_symop_operation_xyz
  'x, y, z'

loop_
  _atom_site_type_symbol
  _atom_site_label
  _atom_site_symmetry_multiplicity
  _atom_site_fract_x
  _atom_site_fract_y
  _atom_site_fract_z
  _atom_site_occupancy
  Zn  Zn1       1.0  0.50000  0.49495  0.25000  1.0000
  Zn  Zn2       1.0  0.00000  0.99495  0.25000  1.0000
  Zn  Zn3       1.0  0.50000  0.50505  0.75000  1.0000
  Zn  Zn4       1.0  0.00000  0.00505  0.75000  1.0000
  O   O1        1.0  0.38370  0.56214  0.15306  1.0000
  O   O2        1.0  0.88370  0.06214  0.15306  1.0000
  O   O3        1.0  0.38370  0.43786  0.65306  1.0000
  O   O4        1.0  0.88370  0.93786  0.65306  1.0000
  O   O5        1.0  0.61630  0.43786  0.84694  1.0000
  O   O6        1.0  0.11630  0.93786  0.84694  1.0000
  O   O7        1.0  0.61630  0.56214  0.34694  1.0000
  O   O8        1.0  0.11630  0.06214  0.34694  1.0000
  O   O9        1.0  0.52526  0.65120  0.09969  1.0000
  O   O10       1.0  0.02526  0.15120  0.09969  1.0000
  O   O11       1.0  0.52526  0.34880  0.59969  1.0000
  O   O12       1.0  0.02526  0.84880  0.59969  1.0000
  O   O13       1.0  0.47474  0.34880  0.90031  1.0000
  O   O14       1.0  0.97474  0.84880  0.90031  1.0000
  O   O15       1.0  0.47474  0.65120  0.40031  1.0000
  O   O16       1.0  0.97474  0.15120  0.40031  1.0000
  O   O17       1.0  0.35480  0.65331  0.72205  1.0000
  O   O18       1.0  0.85480  0.15331  0.72205  1.0000
  O   O19       1.0  0.35480  0.34669  0.22205  1.0000
  O   O20       1.0  0.85480  0.84669  0.22205  1.0000
  O   O21       1.0  0.64520  0.34669  0.27795  1.0000
  O   O22       1.0  0.14520  0.84669  0.27795  1.0000
  O   O23       1.0  0.64520  0.65331  0.77795  1.0000
  O   O24       1.0  0.14520  0.15331  0.77795  1.0000
  O   O25       1.0  0.41022  0.56661  0.87245  1.0000
  O   O26       1.0  0.91022  0.06661  0.87245  1.0000
  O   O27       1.0  0.41022  0.43339  0.37245  1.0000
  O   O28       1.0  0.91022  0.93339  0.37245  1.0000
  O   O29       1.0  0.58978  0.43339  0.12755  1.0000
  O   O30       1.0  0.08978  0.93339  0.12755  1.0000
  O   O31       1.0  0.58978  0.56661  0.62755  1.0000
  O   O32       1.0  0.08978  0.06661  0.62755  1.0000
  C   C1        1.0  0.42225  0.62977  0.10034  1.0000
  C   C2        1.0  0.92225  0.12977  0.10034  1.0000
  C   C3        1.0  0.42225  0.37023  0.60034  1.0000
  C   C4        1.0  0.92225  0.87023  0.60034  1.0000
  C   C5        1.0  0.57775  0.37023  0.89966  1.0000
  C   C6        1.0  0.07775  0.87023  0.89966  1.0000
  C   C7        1.0  0.57775  0.62977  0.39966  1.0000
  C   C8        1.0  0.07775  0.12977  0.39966  1.0000
  C   C9        1.0  0.33176  0.68962  0.04435  1.0000
  C   C10       1.0  0.83176  0.18962  0.04435  1.0000
  C   C11       1.0  0.33176  0.31038  0.54435  1.0000
  C   C12       1.0  0.83176  0.81038  0.54435  1.0000
  C   C13       1.0  0.66824  0.31038  0.95565  1.0000
  C   C14       1.0  0.16824  0.81038  0.95565  1.0000
  C   C15       1.0  0.66824  0.68962  0.45565  1.0000
  C   C16       1.0  0.16824  0.18962  0.45565  1.0000
  C   C17       1.0  0.27625  0.74539  0.12211  1.0000
  C   C18       1.0  0.77625  0.24539  0.12211  1.0000
  C   C19       1.0  0.27625  0.25461  0.62211  1.0000
  C   C20       1.0  0.77625  0.75461  0.62211  1.0000
  C   C21       1.0  0.72375  0.25461  0.87789  1.0000
  C   C22       1.0  0.22375  0.75461  0.87789  1.0000
  C   C23       1.0  0.72375  0.74539  0.37789  1.0000
  C   C24       1.0  0.22375  0.24539  0.37789  1.0000
  C   C25       1.0  0.30524  0.69379  0.92038  1.0000
  C   C26       1.0  0.80524  0.19379  0.92038  1.0000
  C   C27       1.0  0.30524  0.30621  0.42038  1.0000
  C   C28       1.0  0.80524  0.80621  0.42038  1.0000
  C   C29       1.0  0.69476  0.30621  0.07962  1.0000
  C   C30       1.0  0.19476  0.80621  0.07962  1.0000
  C   C31       1.0  0.69476  0.69379  0.57962  1.0000
  C   C32       1.0  0.19476  0.19379  0.57962  1.0000
  C   C33       1.0  0.36041  0.63458  0.83079  1.0000
  C   C34       1.0  0.86041  0.13458  0.83079  1.0000
  C   C35       1.0  0.36041  0.36542  0.33079  1.0000
  C   C36       1.0  0.86041  0.86542  0.33079  1.0000
  C   C37       1.0  0.63959  0.36542  0.16921  1.0000
  C   C38       1.0  0.13959  0.86542  0.16921  1.0000
  C   C39       1.0  0.63959  0.63458  0.66921  1.0000
  C   C40       1.0  0.13959  0.13458  0.66921  1.0000
  H   H1        1.0  0.30200  0.74800  0.21200  1.0000
  H   H2        1.0  0.80200  0.24800  0.21200  1.0000
  H   H3        1.0  0.30200  0.25200  0.71200  1.0000
  H   H4        1.0  0.80200  0.75200  0.71200  1.0000
  H   H5        1.0  0.69800  0.25200  0.78800  1.0000
  H   H6        1.0  0.19800  0.75200  0.78800  1.0000
  H   H7        1.0  0.69800  0.74800  0.28800  1.0000
  H   H8        1.0  0.19800  0.24800  0.28800  1.0000
