data_image0
_chemical_formula_structural       Cd4Cl8C12H8C4O16H8
_chemical_formula_sum              "Cd4 Cl8 C16 H16 O16"
_cell_length_a       8.3741
_cell_length_b       15.0361
_cell_length_c       12.531
_cell_angle_alpha    90
_cell_angle_beta     106.33
_cell_angle_gamma    90

_space_group_name_H-M_alt    "P 1"
_space_group_IT_number       1

loop_
  _space_group_symop_operation_xyz
  'x, y, z'

loop_
  _atom_site_type_symbol
  _atom_site_label
  _atom_site_symmetry_multiplicity
  _atom_site_fract_x
  _atom_site_fract_y
  _atom_site_fract_z
  _atom_site_occupancy
  Cd  Cd1       1.0  0.06047  0.60694  0.24495  1.0000
  Cd  Cd2       1.0  0.43953  0.10694  0.25505  1.0000
  Cd  Cd3       1.0  0.93953  0.39306  0.75505  1.0000
  Cd  Cd4       1.0  0.56047  0.89306  0.74495  1.0000
  Cl  Cl1       1.0  0.99550  0.45380  0.16125  1.0000
  Cl  Cl2       1.0  0.50450  0.95380  0.33875  1.0000
  Cl  Cl3       1.0  0.00450  0.54620  0.83875  1.0000
  Cl  Cl4       1.0  0.49550  0.04620  0.66125  1.0000
  Cl  Cl5       1.0  0.32190  0.64625  0.19937  1.0000
  Cl  Cl6       1.0  0.17810  0.14625  0.30063  1.0000
  Cl  Cl7       1.0  0.67810  0.35375  0.80063  1.0000
  Cl  Cl8       1.0  0.82190  0.85375  0.69937  1.0000
  C   C1        1.0  0.29100  0.78190  0.67850  1.0000
  C   C2        1.0  0.20900  0.28190  0.82150  1.0000
  C   C3        1.0  0.70900  0.21810  0.32150  1.0000
  C   C4        1.0  0.79100  0.71810  0.17850  1.0000
  C   C5        1.0  0.13870  0.62990  0.47510  1.0000
  C   C6        1.0  0.36130  0.12990  0.02490  1.0000
  C   C7        1.0  0.86130  0.37010  0.52490  1.0000
  C   C8        1.0  0.63870  0.87010  0.97510  1.0000
  C   C9        1.0  0.17270  0.62820  0.60120  1.0000
  C   C10       1.0  0.32730  0.12820  0.89880  1.0000
  C   C11       1.0  0.82730  0.37180  0.39880  1.0000
  C   C12       1.0  0.67270  0.87180  0.10120  1.0000
  H   H1        1.0  0.28660  0.60900  0.63360  1.0000
  H   H2        1.0  0.21340  0.10900  0.86640  1.0000
  H   H3        1.0  0.71340  0.39100  0.36640  1.0000
  H   H4        1.0  0.78660  0.89100  0.13360  1.0000
  H   H5        1.0  0.10070  0.58390  0.61980  1.0000
  H   H6        1.0  0.39930  0.08390  0.88020  1.0000
  H   H7        1.0  0.89930  0.41610  0.38020  1.0000
  H   H8        1.0  0.60070  0.91610  0.11980  1.0000
  C   C13       1.0  0.14750  0.71610  0.65580  1.0000
  C   C14       1.0  0.35250  0.21610  0.84420  1.0000
  C   C15       1.0  0.85250  0.28390  0.34420  1.0000
  C   C16       1.0  0.64750  0.78390  0.15580  1.0000
  O   O1        1.0  0.13510  0.55560  0.42630  1.0000
  O   O2        1.0  0.36490  0.05560  0.07370  1.0000
  O   O3        1.0  0.86490  0.44440  0.57370  1.0000
  O   O4        1.0  0.63510  0.94440  0.92630  1.0000
  O   O5        1.0  0.41910  0.76590  0.64730  1.0000
  O   O6        1.0  0.08090  0.26590  0.85270  1.0000
  O   O7        1.0  0.58090  0.23410  0.35270  1.0000
  O   O8        1.0  0.91910  0.73410  0.14730  1.0000
  O   O9        1.0  0.27880  0.85240  0.73230  1.0000
  O   O10       1.0  0.22120  0.35240  0.76770  1.0000
  O   O11       1.0  0.72120  0.14760  0.26770  1.0000
  O   O12       1.0  0.77880  0.64760  0.23230  1.0000
  O   O13       1.0  0.11200  0.70180  0.42190  1.0000
  O   O14       1.0  0.38800  0.20180  0.07810  1.0000
  O   O15       1.0  0.88800  0.29820  0.57810  1.0000
  O   O16       1.0  0.61200  0.79820  0.92190  1.0000
  H   H9        1.0  0.05060  0.74890  0.62180  1.0000
  H   H10       1.0  0.44940  0.24890  0.87820  1.0000
  H   H11       1.0  0.94940  0.25110  0.37820  1.0000
  H   H12       1.0  0.55060  0.75110  0.12180  1.0000
  H   H13       1.0  0.12880  0.70020  0.73170  1.0000
  H   H14       1.0  0.37120  0.20020  0.76830  1.0000
  H   H15       1.0  0.87120  0.29980  0.26830  1.0000
  H   H16       1.0  0.62880  0.79980  0.23170  1.0000
