data_image0
_chemical_formula_structural       Cd2O12C8H4C2H4C2H4
_chemical_formula_sum              "Cd2 O12 C12 H12"
_cell_length_a       8.6967
_cell_length_b       8.9678
_cell_length_c       9.297
_cell_angle_alpha    64.82
_cell_angle_beta     84.253
_cell_angle_gamma    74.222

_space_group_name_H-M_alt    "P 1"
_space_group_IT_number       1

loop_
  _space_group_symop_operation_xyz
  'x, y, z'

loop_
  _atom_site_type_symbol
  _atom_site_label
  _atom_site_symmetry_multiplicity
  _atom_site_fract_x
  _atom_site_fract_y
  _atom_site_fract_z
  _atom_site_occupancy
  Cd  Cd1       1.0  0.02264  0.30491  0.18646  1.0000
  Cd  Cd2       1.0  0.97736  0.69509  0.81354  1.0000
  O   O1        1.0  0.14990  0.50070  0.02760  1.0000
  O   O2        1.0  0.85010  0.49930  0.97240  1.0000
  O   O3        1.0  0.13430  0.03960  0.18620  1.0000
  O   O4        1.0  0.86570  0.96040  0.81380  1.0000
  O   O5        1.0  0.14150  0.58620  0.64930  1.0000
  O   O6        1.0  0.85850  0.41380  0.35070  1.0000
  O   O7        1.0  0.93120  0.79040  0.53760  1.0000
  O   O8        1.0  0.06880  0.20960  0.46240  1.0000
  O   O9        1.0  0.87540  0.10600  0.20680  1.0000
  O   O10       1.0  0.12460  0.89400  0.79320  1.0000
  O   O11       1.0  0.34050  0.30090  0.18430  1.0000
  O   O12       1.0  0.65950  0.69910  0.81570  1.0000
  C   C1        1.0  0.29790  0.44010  0.06980  1.0000
  C   C2        1.0  0.70210  0.55990  0.93020  1.0000
  C   C3        1.0  0.00300  0.00010  0.20630  1.0000
  C   C4        1.0  0.99700  0.99990  0.79370  1.0000
  C   C5        1.0  0.05590  0.68830  0.52750  1.0000
  C   C6        1.0  0.94410  0.31170  0.47250  1.0000
  C   C7        1.0  0.41370  0.54230  0.97640  1.0000
  C   C8        1.0  0.58630  0.45770  0.02360  1.0000
  H   H1        1.0  0.39960  0.56140  0.87500  1.0000
  H   H2        1.0  0.60040  0.43860  0.12500  1.0000
  H   H3        1.0  0.38290  0.65450  0.97690  1.0000
  H   H4        1.0  0.61710  0.34550  0.02310  1.0000
  C   C9        1.0  0.00360  0.82080  0.22920  1.0000
  C   C10       1.0  0.99640  0.17920  0.77080  1.0000
  H   H5        1.0  0.90050  0.82210  0.24130  1.0000
  H   H6        1.0  0.09950  0.17790  0.75870  1.0000
  H   H7        1.0  0.04990  0.80910  0.14300  1.0000
  H   H8        1.0  0.95010  0.19090  0.85700  1.0000
  C   C11       1.0  0.11070  0.68340  0.36890  1.0000
  C   C12       1.0  0.88930  0.31660  0.63110  1.0000
  H   H9        1.0  0.22350  0.69060  0.34970  1.0000
  H   H10       1.0  0.77650  0.30940  0.65030  1.0000
  H   H11       1.0  0.10940  0.56500  0.38380  1.0000
  H   H12       1.0  0.89060  0.43500  0.61620  1.0000
