data_image0
_chemical_formula_structural       Fe2Mn4O8N20C76H56
_chemical_formula_sum              "Fe2 Mn4 O8 N20 C76 H56"
_cell_length_a       12.366
_cell_length_b       15.311
_cell_length_c       12.918
_cell_angle_alpha    90
_cell_angle_beta     110.971
_cell_angle_gamma    90

_space_group_name_H-M_alt    "P 1"
_space_group_IT_number       1

loop_
  _space_group_symop_operation_xyz
  'x, y, z'

loop_
  _atom_site_type_symbol
  _atom_site_label
  _atom_site_symmetry_multiplicity
  _atom_site_fract_x
  _atom_site_fract_y
  _atom_site_fract_z
  _atom_site_occupancy
  Fe  Fe1       1.0  0.00000  0.50000  0.50000  1.0000
  Fe  Fe2       1.0  0.00000  0.00000  0.00000  1.0000
  Mn  Mn1       1.0  0.09299  0.19701  0.71538  1.0000
  Mn  Mn2       1.0  0.09299  0.30299  0.21538  1.0000
  Mn  Mn3       1.0  0.90701  0.80299  0.28462  1.0000
  Mn  Mn4       1.0  0.90701  0.69701  0.78462  1.0000
  O   O1        1.0  0.00360  0.13590  0.58610  1.0000
  O   O2        1.0  0.00360  0.36410  0.08610  1.0000
  O   O3        1.0  0.99640  0.86410  0.41390  1.0000
  O   O4        1.0  0.99640  0.63590  0.91390  1.0000
  O   O5        1.0  0.23730  0.17140  0.70100  1.0000
  O   O6        1.0  0.23730  0.32860  0.20100  1.0000
  O   O7        1.0  0.76270  0.82860  0.29900  1.0000
  O   O8        1.0  0.76270  0.67140  0.79900  1.0000
  N   N1        1.0  0.95040  0.23010  0.74480  1.0000
  N   N2        1.0  0.95040  0.26990  0.24480  1.0000
  N   N3        1.0  0.04960  0.76990  0.25520  1.0000
  N   N4        1.0  0.04960  0.73010  0.75520  1.0000
  N   N5        1.0  0.16970  0.26640  0.85320  1.0000
  N   N6        1.0  0.16970  0.23360  0.35320  1.0000
  N   N7        1.0  0.83030  0.73360  0.14680  1.0000
  N   N8        1.0  0.83030  0.76640  0.64680  1.0000
  N   N9        1.0  0.07940  0.32790  0.62980  1.0000
  N   N10       1.0  0.07940  0.17210  0.12980  1.0000
  N   N11       1.0  0.92060  0.67210  0.37020  1.0000
  N   N12       1.0  0.92060  0.82790  0.87020  1.0000
  N   N13       1.0  0.90260  0.57650  0.67210  1.0000
  N   N14       1.0  0.90260  0.92350  0.17210  1.0000
  N   N15       1.0  0.09740  0.42350  0.32790  1.0000
  N   N16       1.0  0.09740  0.07650  0.82790  1.0000
  N   N17       1.0  0.23180  0.59550  0.62500  1.0000
  N   N18       1.0  0.23180  0.90450  0.12500  1.0000
  N   N19       1.0  0.76820  0.40450  0.37500  1.0000
  N   N20       1.0  0.76820  0.09550  0.87500  1.0000
  C   C1        1.0  0.89880  0.10210  0.56290  1.0000
  C   C2        1.0  0.89880  0.39790  0.06290  1.0000
  C   C3        1.0  0.10120  0.89790  0.43710  1.0000
  C   C4        1.0  0.10120  0.60210  0.93710  1.0000
  C   C5        1.0  0.85720  0.04340  0.47300  1.0000
  C   C6        1.0  0.85720  0.45660  0.97300  1.0000
  C   C7        1.0  0.14280  0.95660  0.52700  1.0000
  C   C8        1.0  0.14280  0.54340  0.02700  1.0000
  C   C9        1.0  0.75070  0.00440  0.44550  1.0000
  C   C10       1.0  0.75070  0.49560  0.94550  1.0000
  C   C11       1.0  0.24930  0.99560  0.55450  1.0000
  C   C12       1.0  0.24930  0.50440  0.05450  1.0000
  C   C13       1.0  0.67960  0.02220  0.50760  1.0000
  C   C14       1.0  0.67960  0.47780  0.00760  1.0000
  C   C15       1.0  0.32040  0.97780  0.49240  1.0000
  C   C16       1.0  0.32040  0.52220  0.99240  1.0000
  C   C17       1.0  0.71670  0.08140  0.59380  1.0000
  C   C18       1.0  0.71670  0.41860  0.09380  1.0000
  C   C19       1.0  0.28330  0.91860  0.40620  1.0000
  C   C20       1.0  0.28330  0.58140  0.90620  1.0000
  C   C21       1.0  0.82440  0.12370  0.62150  1.0000
  C   C22       1.0  0.82440  0.37630  0.12150  1.0000
  C   C23       1.0  0.17560  0.87630  0.37850  1.0000
  C   C24       1.0  0.17560  0.62370  0.87850  1.0000
  C   C25       1.0  0.85360  0.19030  0.70710  1.0000
  C   C26       1.0  0.85360  0.30970  0.20710  1.0000
  C   C27       1.0  0.14640  0.80970  0.29290  1.0000
  C   C28       1.0  0.14640  0.69030  0.79290  1.0000
  C   C29       1.0  0.97000  0.30180  0.82660  1.0000
  C   C30       1.0  0.97000  0.19820  0.32660  1.0000
  C   C31       1.0  0.03000  0.69820  0.17340  1.0000
  C   C32       1.0  0.03000  0.80180  0.67340  1.0000
  C   C33       1.0  0.09140  0.28970  0.91230  1.0000
  C   C34       1.0  0.09140  0.21030  0.41230  1.0000
  C   C35       1.0  0.90860  0.71030  0.08770  1.0000
  C   C36       1.0  0.90860  0.78970  0.58770  1.0000
  C   C37       1.0  0.27430  0.29520  0.88620  1.0000
  C   C38       1.0  0.27430  0.20480  0.38620  1.0000
  C   C39       1.0  0.72570  0.70480  0.11380  1.0000
  C   C40       1.0  0.72570  0.79520  0.61380  1.0000
  C   C41       1.0  0.35960  0.27200  0.83780  1.0000
  C   C42       1.0  0.35960  0.22800  0.33780  1.0000
  C   C43       1.0  0.64040  0.72800  0.16220  1.0000
  C   C44       1.0  0.64040  0.77200  0.66220  1.0000
  C   C45       1.0  0.47140  0.30880  0.88700  1.0000
  C   C46       1.0  0.47140  0.19120  0.38700  1.0000
  C   C47       1.0  0.52860  0.69120  0.11300  1.0000
  C   C48       1.0  0.52860  0.80880  0.61300  1.0000
  C   C49       1.0  0.56120  0.28740  0.85290  1.0000
  C   C50       1.0  0.56120  0.21260  0.35290  1.0000
  C   C51       1.0  0.43880  0.71260  0.14710  1.0000
  C   C52       1.0  0.43880  0.78740  0.64710  1.0000
  C   C53       1.0  0.53900  0.22550  0.76580  1.0000
  C   C54       1.0  0.53900  0.27450  0.26580  1.0000
  C   C55       1.0  0.46100  0.77450  0.23420  1.0000
  C   C56       1.0  0.46100  0.72550  0.73420  1.0000
  C   C57       1.0  0.43140  0.18970  0.71640  1.0000
  C   C58       1.0  0.43140  0.31030  0.21640  1.0000
  C   C59       1.0  0.56860  0.81030  0.28360  1.0000
  C   C60       1.0  0.56860  0.68970  0.78360  1.0000
  C   C61       1.0  0.33800  0.21110  0.74990  1.0000
  C   C62       1.0  0.33800  0.28890  0.24990  1.0000
  C   C63       1.0  0.66200  0.78890  0.25010  1.0000
  C   C64       1.0  0.66200  0.71110  0.75010  1.0000
  C   C65       1.0  0.05210  0.39360  0.58420  1.0000
  C   C66       1.0  0.05210  0.10640  0.08420  1.0000
  C   C67       1.0  0.94790  0.60640  0.41580  1.0000
  C   C68       1.0  0.94790  0.89360  0.91580  1.0000
  C   C69       1.0  0.06170  0.45470  0.39180  1.0000
  C   C70       1.0  0.06170  0.04530  0.89180  1.0000
  C   C71       1.0  0.93830  0.54530  0.60820  1.0000
  C   C72       1.0  0.93830  0.95470  0.10820  1.0000
  C   C73       1.0  0.14560  0.55850  0.57900  1.0000
  C   C74       1.0  0.14560  0.94150  0.07900  1.0000
  C   C75       1.0  0.85440  0.44150  0.42100  1.0000
  C   C76       1.0  0.85440  0.05850  0.92100  1.0000
  H   H1        1.0  0.90450  0.02990  0.43120  1.0000
  H   H2        1.0  0.90450  0.47010  0.93120  1.0000
  H   H3        1.0  0.09550  0.97010  0.56880  1.0000
  H   H4        1.0  0.09550  0.52990  0.06880  1.0000
  H   H5        1.0  0.72410  0.96570  0.38400  1.0000
  H   H6        1.0  0.72410  0.53430  0.88400  1.0000
  H   H7        1.0  0.27590  0.03430  0.61600  1.0000
  H   H8        1.0  0.27590  0.46570  0.11600  1.0000
  H   H9        1.0  0.60750  0.99310  0.49100  1.0000
  H   H10       1.0  0.60750  0.50690  0.99100  1.0000
  H   H11       1.0  0.39250  0.00690  0.50900  1.0000
  H   H12       1.0  0.39250  0.49310  0.00900  1.0000
  H   H13       1.0  0.66860  0.09380  0.63520  1.0000
  H   H14       1.0  0.66860  0.40620  0.13520  1.0000
  H   H15       1.0  0.33140  0.90620  0.36480  1.0000
  H   H16       1.0  0.33140  0.59380  0.86480  1.0000
  H   H17       1.0  0.79600  0.20570  0.73660  1.0000
  H   H18       1.0  0.79600  0.29430  0.23660  1.0000
  H   H19       1.0  0.20400  0.79430  0.26340  1.0000
  H   H20       1.0  0.20400  0.70570  0.76340  1.0000
  H   H21       1.0  0.91470  0.29850  0.86200  1.0000
  H   H22       1.0  0.91470  0.20150  0.36200  1.0000
  H   H23       1.0  0.08530  0.70150  0.13800  1.0000
  H   H24       1.0  0.08530  0.79850  0.63800  1.0000
  H   H25       1.0  0.96400  0.35700  0.79120  1.0000
  H   H26       1.0  0.96400  0.14300  0.29120  1.0000
  H   H27       1.0  0.03600  0.64300  0.20880  1.0000
  H   H28       1.0  0.03600  0.85700  0.70880  1.0000
  H   H29       1.0  0.09120  0.24450  0.96260  1.0000
  H   H30       1.0  0.09120  0.25550  0.46260  1.0000
  H   H31       1.0  0.90880  0.75550  0.03740  1.0000
  H   H32       1.0  0.90880  0.74450  0.53740  1.0000
  H   H33       1.0  0.11650  0.34270  0.95190  1.0000
  H   H34       1.0  0.11650  0.15730  0.45190  1.0000
  H   H35       1.0  0.88350  0.65730  0.04810  1.0000
  H   H36       1.0  0.88350  0.84270  0.54810  1.0000
  H   H37       1.0  0.29730  0.33490  0.94670  1.0000
  H   H38       1.0  0.29730  0.16510  0.44670  1.0000
  H   H39       1.0  0.70270  0.66510  0.05330  1.0000
  H   H40       1.0  0.70270  0.83490  0.55330  1.0000
  H   H41       1.0  0.48460  0.35000  0.94530  1.0000
  H   H42       1.0  0.48460  0.15000  0.44530  1.0000
  H   H43       1.0  0.51540  0.65000  0.05470  1.0000
  H   H44       1.0  0.51540  0.85000  0.55470  1.0000
  H   H45       1.0  0.63550  0.31310  0.88640  1.0000
  H   H46       1.0  0.63550  0.18690  0.38640  1.0000
  H   H47       1.0  0.36450  0.68690  0.11360  1.0000
  H   H48       1.0  0.36450  0.81310  0.61360  1.0000
  H   H49       1.0  0.59970  0.20890  0.74090  1.0000
  H   H50       1.0  0.59970  0.29110  0.24090  1.0000
  H   H51       1.0  0.40030  0.79110  0.25910  1.0000
  H   H52       1.0  0.40030  0.70890  0.75910  1.0000
  H   H53       1.0  0.41940  0.14840  0.65850  1.0000
  H   H54       1.0  0.41940  0.35160  0.15850  1.0000
  H   H55       1.0  0.58060  0.85160  0.34150  1.0000
  H   H56       1.0  0.58060  0.64840  0.84150  1.0000
