data_image0
_chemical_formula_structural       Zn8P4O24C4H8C4P4O24C4H8C4
_chemical_formula_sum              "Zn8 P8 O48 C16 H16"
_cell_length_a       10.222
_cell_length_b       8.18
_cell_length_c       18.042
_cell_angle_alpha    90
_cell_angle_beta     95.86
_cell_angle_gamma    90

_space_group_name_H-M_alt    "P 1"
_space_group_IT_number       1

loop_
  _space_group_symop_operation_xyz
  'x, y, z'

loop_
  _atom_site_type_symbol
  _atom_site_label
  _atom_site_symmetry_multiplicity
  _atom_site_fract_x
  _atom_site_fract_y
  _atom_site_fract_z
  _atom_site_occupancy
  Zn  Zn1       1.0  0.08426  0.57586  0.41480  1.0000
  Zn  Zn2       1.0  0.41574  0.07586  0.08520  1.0000
  Zn  Zn3       1.0  0.91574  0.42414  0.58520  1.0000
  Zn  Zn4       1.0  0.58426  0.92414  0.91480  1.0000
  Zn  Zn5       1.0  0.42894  0.40472  0.59011  1.0000
  Zn  Zn6       1.0  0.07106  0.90472  0.90989  1.0000
  Zn  Zn7       1.0  0.57106  0.59528  0.40989  1.0000
  Zn  Zn8       1.0  0.92894  0.09528  0.09011  1.0000
  P   P1        1.0  0.17291  0.62289  0.57786  1.0000
  P   P2        1.0  0.32709  0.12289  0.92214  1.0000
  P   P3        1.0  0.82709  0.37711  0.42214  1.0000
  P   P4        1.0  0.67291  0.87711  0.07786  1.0000
  O   O1        1.0  0.12287  0.71040  0.50614  1.0000
  O   O2        1.0  0.37713  0.21040  0.99386  1.0000
  O   O3        1.0  0.87713  0.28960  0.49386  1.0000
  O   O4        1.0  0.62287  0.78960  0.00614  1.0000
  O   O5        1.0  0.10332  0.46360  0.58976  1.0000
  O   O6        1.0  0.39668  0.96360  0.91024  1.0000
  O   O7        1.0  0.89668  0.53640  0.41024  1.0000
  O   O8        1.0  0.60332  0.03640  0.08976  1.0000
  O   O9        1.0  0.32184  0.60290  0.58684  1.0000
  O   O10       1.0  0.17816  0.10290  0.91316  1.0000
  O   O11       1.0  0.67816  0.39710  0.41316  1.0000
  O   O12       1.0  0.82184  0.89710  0.08684  1.0000
  O   O13       1.0  0.14022  0.74710  0.64197  1.0000
  O   O14       1.0  0.35978  0.24710  0.85803  1.0000
  O   O15       1.0  0.85978  0.25290  0.35803  1.0000
  O   O16       1.0  0.64022  0.75290  0.14197  1.0000
  O   O17       1.0  0.14351  0.75130  0.84014  1.0000
  O   O18       1.0  0.35649  0.25130  0.65986  1.0000
  O   O19       1.0  0.85649  0.24870  0.15986  1.0000
  O   O20       1.0  0.64351  0.74870  0.34014  1.0000
  O   O21       1.0  0.03165  0.90110  0.75261  1.0000
  O   O22       1.0  0.46835  0.40110  0.74739  1.0000
  O   O23       1.0  0.96835  0.09890  0.24739  1.0000
  O   O24       1.0  0.53165  0.59890  0.25261  1.0000
  C   C1        1.0  0.18030  0.69430  0.71730  1.0000
  C   C2        1.0  0.31970  0.19430  0.78270  1.0000
  C   C3        1.0  0.81970  0.30570  0.28270  1.0000
  C   C4        1.0  0.68030  0.80570  0.21730  1.0000
  H   H1        1.0  0.27660  0.70750  0.72820  1.0000
  H   H2        1.0  0.22340  0.20750  0.77180  1.0000
  H   H3        1.0  0.72340  0.29250  0.27180  1.0000
  H   H4        1.0  0.77660  0.79250  0.22820  1.0000
  H   H5        1.0  0.15890  0.57710  0.72250  1.0000
  H   H6        1.0  0.34110  0.07710  0.77750  1.0000
  H   H7        1.0  0.84110  0.42290  0.27750  1.0000
  H   H8        1.0  0.65890  0.92290  0.22250  1.0000
  C   C5        1.0  0.11120  0.79310  0.77204  1.0000
  C   C6        1.0  0.38880  0.29310  0.72796  1.0000
  C   C7        1.0  0.88880  0.20690  0.22796  1.0000
  C   C8        1.0  0.61120  0.70690  0.27204  1.0000
  P   P5        1.0  0.33400  0.36549  0.42490  1.0000
  P   P6        1.0  0.16600  0.86549  0.07510  1.0000
  P   P7        1.0  0.66600  0.63451  0.57510  1.0000
  P   P8        1.0  0.83400  0.13451  0.92490  1.0000
  O   O25       1.0  0.18429  0.37200  0.42397  1.0000
  O   O26       1.0  0.31571  0.87200  0.07603  1.0000
  O   O27       1.0  0.81571  0.62800  0.57603  1.0000
  O   O28       1.0  0.68429  0.12800  0.92397  1.0000
  O   O29       1.0  0.39936  0.28700  0.49472  1.0000
  O   O30       1.0  0.10064  0.78700  0.00528  1.0000
  O   O31       1.0  0.60064  0.71300  0.50528  1.0000
  O   O32       1.0  0.89936  0.21300  0.99472  1.0000
  O   O33       1.0  0.38749  0.53150  0.40611  1.0000
  O   O34       1.0  0.11251  0.03150  0.09389  1.0000
  O   O35       1.0  0.61251  0.46850  0.59389  1.0000
  O   O36       1.0  0.88749  0.96850  0.90611  1.0000
  O   O37       1.0  0.36630  0.23830  0.36197  1.0000
  O   O38       1.0  0.13370  0.73830  0.13803  1.0000
  O   O39       1.0  0.63370  0.76170  0.63803  1.0000
  O   O40       1.0  0.86630  0.26170  0.86197  1.0000
  O   O41       1.0  0.37465  0.21440  0.16638  1.0000
  O   O42       1.0  0.12535  0.71440  0.33362  1.0000
  O   O43       1.0  0.62535  0.78560  0.83362  1.0000
  O   O44       1.0  0.87465  0.28560  0.66638  1.0000
  O   O45       1.0  0.42691  0.02880  0.25629  1.0000
  O   O46       1.0  0.07309  0.52880  0.24371  1.0000
  O   O47       1.0  0.57309  0.97120  0.74371  1.0000
  O   O48       1.0  0.92691  0.47120  0.75629  1.0000
  C   C9        1.0  0.33240  0.28600  0.28606  1.0000
  C   C10       1.0  0.16760  0.78600  0.21394  1.0000
  C   C11       1.0  0.66760  0.71400  0.71394  1.0000
  C   C12       1.0  0.83240  0.21400  0.78606  1.0000
  H   H9        1.0  0.37020  0.39500  0.27750  1.0000
  H   H10       1.0  0.12980  0.89500  0.22250  1.0000
  H   H11       1.0  0.62980  0.60500  0.72250  1.0000
  H   H12       1.0  0.87020  0.10500  0.77750  1.0000
  H   H13       1.0  0.23560  0.29400  0.27590  1.0000
  H   H14       1.0  0.26440  0.79400  0.22410  1.0000
  H   H15       1.0  0.76440  0.70600  0.72410  1.0000
  H   H16       1.0  0.73560  0.20600  0.77590  1.0000
  C   C13       1.0  0.38400  0.16340  0.23411  1.0000
  C   C14       1.0  0.11600  0.66340  0.26589  1.0000
  C   C15       1.0  0.61600  0.83660  0.76589  1.0000
  C   C16       1.0  0.88400  0.33660  0.73411  1.0000
