data_image0
_chemical_formula_structural       CaO6C4Ca2O2C2O2C2O8C8Ca2C6H4C4H4C2O10C2N2H2C2H4C2H4C2H4C8O4N2H2C2H4C2H12C10H4C2H4C2H16O2C18H10C2H12C4O2H4C14H6C2H6C6O2H4O2H6C4H8C4H2C2H2C10H2C4H4C4H4C2H4C2H2C4O2
_chemical_formula_sum              "Ca5 O42 C144 H140 N4"
_cell_length_a       14.6854
_cell_length_b       17.3507
_cell_length_c       17.565
_cell_angle_alpha    71.291
_cell_angle_beta     75.262
_cell_angle_gamma    66.322

_space_group_name_H-M_alt    "P 1"
_space_group_IT_number       1

loop_
  _space_group_symop_operation_xyz
  'x, y, z'

loop_
  _atom_site_type_symbol
  _atom_site_label
  _atom_site_symmetry_multiplicity
  _atom_site_fract_x
  _atom_site_fract_y
  _atom_site_fract_z
  _atom_site_occupancy
  Ca  Ca1       1.0  0.50000  0.50000  0.50000  1.0000
  O   O1        1.0  0.46545  0.59959  0.37986  1.0000
  O   O2        1.0  0.53455  0.40041  0.62014  1.0000
  O   O3        1.0  0.64678  0.40940  0.43197  1.0000
  O   O4        1.0  0.35322  0.59060  0.56803  1.0000
  O   O5        1.0  0.39356  0.44409  0.47044  1.0000
  O   O6        1.0  0.60644  0.55591  0.52956  1.0000
  C   C1        1.0  0.42514  0.62736  0.31708  1.0000
  C   C2        1.0  0.57486  0.37264  0.68292  1.0000
  C   C3        1.0  0.65508  0.39432  0.36501  1.0000
  C   C4        1.0  0.34492  0.60568  0.63499  1.0000
  Ca  Ca2       1.0  0.42656  0.43487  0.32039  1.0000
  Ca  Ca3       1.0  0.57344  0.56513  0.67961  1.0000
  O   O7        1.0  0.39532  0.58463  0.28941  1.0000
  O   O8        1.0  0.60468  0.41537  0.71059  1.0000
  C   C5        1.0  0.41147  0.72054  0.27142  1.0000
  C   C6        1.0  0.58853  0.27946  0.72858  1.0000
  O   O9        1.0  0.58826  0.38335  0.34128  1.0000
  O   O10       1.0  0.41174  0.61665  0.65872  1.0000
  C   C7        1.0  0.75224  0.38710  0.30828  1.0000
  C   C8        1.0  0.24776  0.61290  0.69172  1.0000
  O   O11       1.0  0.46166  0.29867  0.29167  1.0000
  O   O12       1.0  0.53834  0.70133  0.70833  1.0000
  O   O13       1.0  0.49627  0.46655  0.17569  1.0000
  O   O14       1.0  0.50373  0.53345  0.82431  1.0000
  O   O15       1.0  0.26823  0.44484  0.31132  1.0000
  O   O16       1.0  0.73177  0.55516  0.68868  1.0000
  O   O17       1.0  0.37085  0.33406  0.45329  1.0000
  O   O18       1.0  0.62915  0.66594  0.54671  1.0000
  C   C9        1.0  0.44860  0.76893  0.29575  1.0000
  C   C10       1.0  0.55140  0.23107  0.70425  1.0000
  C   C11       1.0  0.36020  0.76090  0.20548  1.0000
  C   C12       1.0  0.63980  0.23910  0.79452  1.0000
  C   C13       1.0  0.83950  0.37230  0.33419  1.0000
  C   C14       1.0  0.16050  0.62770  0.66581  1.0000
  C   C15       1.0  0.75540  0.39486  0.22600  1.0000
  C   C16       1.0  0.24460  0.60514  0.77400  1.0000
  Ca  Ca4       1.0  0.27857  0.28946  0.39156  1.0000
  Ca  Ca5       1.0  0.72143  0.71054  0.60844  1.0000
  C   C17       1.0  0.44010  0.25832  0.25483  1.0000
  C   C18       1.0  0.55990  0.74168  0.74517  1.0000
  C   C19       1.0  0.50010  0.53580  0.13010  1.0000
  C   C20       1.0  0.49990  0.46420  0.86990  1.0000
  C   C21       1.0  0.43330  0.85486  0.25762  1.0000
  C   C22       1.0  0.56670  0.14514  0.74238  1.0000
  H   H1        1.0  0.48510  0.74270  0.33920  1.0000
  H   H2        1.0  0.51490  0.25730  0.66080  1.0000
  H   H3        1.0  0.33520  0.72940  0.18740  1.0000
  H   H4        1.0  0.66480  0.27060  0.81260  1.0000
  C   C23       1.0  0.34480  0.84725  0.16532  1.0000
  C   C24       1.0  0.65520  0.15275  0.83468  1.0000
  C   C25       1.0  0.93030  0.36180  0.28229  1.0000
  C   C26       1.0  0.06970  0.63820  0.71771  1.0000
  H   H5        1.0  0.83810  0.36910  0.38830  1.0000
  H   H6        1.0  0.16190  0.63090  0.61170  1.0000
  H   H7        1.0  0.69700  0.40550  0.20680  1.0000
  H   H8        1.0  0.30300  0.59450  0.79320  1.0000
  C   C27       1.0  0.84310  0.38701  0.17344  1.0000
  C   C28       1.0  0.15690  0.61299  0.82656  1.0000
  O   O19       1.0  0.36062  0.24383  0.27303  1.0000
  O   O20       1.0  0.63938  0.75617  0.72697  1.0000
  O   O21       1.0  0.15537  0.33024  0.50142  1.0000
  O   O22       1.0  0.84463  0.66976  0.49858  1.0000
  O   O23       1.0  0.18197  0.20607  0.38630  1.0000
  O   O24       1.0  0.81803  0.79393  0.61370  1.0000
  O   O25       1.0  0.14895  0.40080  0.30745  1.0000
  O   O26       1.0  0.85105  0.59920  0.69255  1.0000
  O   O27       1.0  0.39163  0.15559  0.45576  1.0000
  O   O28       1.0  0.60837  0.84441  0.54424  1.0000
  C   C29       1.0  0.51482  0.22271  0.18802  1.0000
  C   C30       1.0  0.48518  0.77729  0.81198  1.0000
  N   N1        1.0  0.55800  0.54563  0.05989  1.0000
  N   N2        1.0  0.44200  0.45437  0.94011  1.0000
  H   H9        1.0  0.45830  0.58600  0.14690  1.0000
  H   H10       1.0  0.54170  0.41400  0.85310  1.0000
  C   C31       1.0  0.38082  0.89443  0.19227  1.0000
  C   C32       1.0  0.61918  0.10557  0.80773  1.0000
  H   H11       1.0  0.45820  0.88630  0.27580  1.0000
  H   H12       1.0  0.54180  0.11370  0.72420  1.0000
  H   H13       1.0  0.31050  0.87300  0.12060  1.0000
  H   H14       1.0  0.68950  0.12700  0.87940  1.0000
  C   C33       1.0  0.93237  0.36681  0.20173  1.0000
  C   C34       1.0  0.06763  0.63319  0.79827  1.0000
  H   H15       1.0  0.98860  0.35160  0.30150  1.0000
  H   H16       1.0  0.01140  0.64840  0.69850  1.0000
  H   H17       1.0  0.84320  0.39520  0.11840  1.0000
  H   H18       1.0  0.15680  0.60480  0.88160  1.0000
  C   C35       1.0  0.12960  0.29990  0.57070  1.0000
  C   C36       1.0  0.87040  0.70010  0.42930  1.0000
  H   H19       1.0  0.20920  0.15260  0.38640  1.0000
  H   H20       1.0  0.79080  0.84740  0.61360  1.0000
  H   H21       1.0  0.12150  0.21550  0.40940  1.0000
  H   H22       1.0  0.87850  0.78450  0.59060  1.0000
  C   C37       1.0  0.49420  0.17410  0.14984  1.0000
  C   C38       1.0  0.50580  0.82590  0.85016  1.0000
  C   C39       1.0  0.60710  0.23418  0.16478  1.0000
  C   C40       1.0  0.39290  0.76582  0.83522  1.0000
  C   C41       1.0  0.55000  0.63230  0.00860  1.0000
  C   C42       1.0  0.45000  0.36770  0.99140  1.0000
  C   C43       1.0  0.62800  0.47240  0.02980  1.0000
  C   C44       1.0  0.37200  0.52760  0.97020  1.0000
  O   O29       1.0  0.36928  0.98016  0.15702  1.0000
  O   O30       1.0  0.63072  0.01984  0.84298  1.0000
  O   O31       1.0  0.01620  0.35310  0.14496  1.0000
  O   O32       1.0  0.98380  0.64690  0.85504  1.0000
  N   N3        1.0  0.06980  0.34230  0.62880  1.0000
  N   N4        1.0  0.93020  0.65770  0.37120  1.0000
  H   H23       1.0  0.15340  0.23960  0.58740  1.0000
  H   H24       1.0  0.84660  0.76040  0.41260  1.0000
  C   C45       1.0  0.56370  0.13680  0.09132  1.0000
  C   C46       1.0  0.43630  0.86320  0.90868  1.0000
  H   H25       1.0  0.43220  0.16680  0.16420  1.0000
  H   H26       1.0  0.56780  0.83320  0.83580  1.0000
  H   H27       1.0  0.62140  0.26770  0.18900  1.0000
  H   H28       1.0  0.37860  0.73230  0.81100  1.0000
  C   C47       1.0  0.67820  0.19650  0.10617  1.0000
  C   C48       1.0  0.32180  0.80350  0.89383  1.0000
  H   H29       1.0  0.49910  0.67510  0.03480  1.0000
  H   H30       1.0  0.50090  0.32490  0.96520  1.0000
  H   H31       1.0  0.53240  0.63870  0.95730  1.0000
  H   H32       1.0  0.46760  0.36130  0.04270  1.0000
  H   H33       1.0  0.61330  0.64010  0.99980  1.0000
  H   H34       1.0  0.38670  0.35990  0.00020  1.0000
  H   H35       1.0  0.61390  0.42100  0.06180  1.0000
  H   H36       1.0  0.38610  0.57900  0.93820  1.0000
  H   H37       1.0  0.69510  0.46550  0.03340  1.0000
  H   H38       1.0  0.30490  0.53450  0.96660  1.0000
  H   H39       1.0  0.62190  0.48170  0.97420  1.0000
  H   H40       1.0  0.37810  0.51830  0.02580  1.0000
  C   C49       1.0  0.29900  0.02550  0.09992  1.0000
  C   C50       1.0  0.70100  0.97450  0.90008  1.0000
  C   C51       1.0  0.11541  0.31400  0.16896  1.0000
  C   C52       1.0  0.88459  0.68600  0.83104  1.0000
  C   C53       1.0  0.04170  0.29660  0.70740  1.0000
  C   C54       1.0  0.95830  0.70340  0.29260  1.0000
  C   C55       1.0  0.04830  0.43370  0.60950  1.0000
  C   C56       1.0  0.95170  0.56630  0.39050  1.0000
  C   C57       1.0  0.65697  0.14580  0.07132  1.0000
  C   C58       1.0  0.34303  0.85420  0.92868  1.0000
  H   H41       1.0  0.54820  0.10560  0.06520  1.0000
  H   H42       1.0  0.45180  0.89440  0.93480  1.0000
  H   H43       1.0  0.73950  0.20510  0.09040  1.0000
  H   H44       1.0  0.26050  0.79490  0.90960  1.0000
  C   C59       1.0  0.27744  0.12186  0.07793  1.0000
  C   C60       1.0  0.72256  0.87814  0.92207  1.0000
  H   H45       1.0  0.23690  0.01420  0.12320  1.0000
  H   H46       1.0  0.76310  0.98580  0.87680  1.0000
  H   H47       1.0  0.32610  0.00410  0.05120  1.0000
  H   H48       1.0  0.67390  0.99590  0.94880  1.0000
  C   C61       1.0  0.18229  0.26092  0.10970  1.0000
  C   C62       1.0  0.81771  0.73908  0.89030  1.0000
  H   H49       1.0  0.11340  0.27730  0.22380  1.0000
  H   H50       1.0  0.88660  0.72270  0.77620  1.0000
  H   H51       1.0  0.14030  0.35860  0.16730  1.0000
  H   H52       1.0  0.85970  0.64140  0.83270  1.0000
  H   H53       1.0  0.06350  0.23600  0.70910  1.0000
  H   H54       1.0  0.93650  0.76400  0.29090  1.0000
  H   H55       1.0  0.97000  0.31880  0.72130  1.0000
  H   H56       1.0  0.03000  0.68120  0.27870  1.0000
  H   H57       1.0  0.07250  0.30370  0.74560  1.0000
  H   H58       1.0  0.92750  0.69630  0.25440  1.0000
  H   H59       1.0  0.07390  0.44690  0.64700  1.0000
  H   H60       1.0  0.92610  0.55310  0.35300  1.0000
  H   H61       1.0  0.97690  0.46340  0.61310  1.0000
  H   H62       1.0  0.02310  0.53660  0.38690  1.0000
  H   H63       1.0  0.07960  0.45220  0.55520  1.0000
  H   H64       1.0  0.92040  0.54780  0.44480  1.0000
  O   O33       1.0  0.72413  0.10186  0.01549  1.0000
  O   O34       1.0  0.27587  0.89814  0.98451  1.0000
  C   C63       1.0  0.21399  0.17068  0.13364  1.0000
  C   C64       1.0  0.78601  0.82932  0.86636  1.0000
  C   C65       1.0  0.31175  0.16285  0.99997  1.0000
  C   C66       1.0  0.68825  0.83715  0.00003  1.0000
  C   C67       1.0  0.20842  0.30321  0.02940  1.0000
  C   C68       1.0  0.79158  0.69679  0.97060  1.0000
  C   C69       1.0  0.82891  0.08055  0.01618  1.0000
  C   C70       1.0  0.17109  0.91945  0.98382  1.0000
  C   C71       1.0  0.18240  0.12340  0.21815  1.0000
  C   C72       1.0  0.81760  0.87660  0.78185  1.0000
  C   C73       1.0  0.27370  0.25395  0.97475  1.0000
  C   C74       1.0  0.72630  0.74605  0.02525  1.0000
  C   C75       1.0  0.38940  0.11130  0.94332  1.0000
  C   C76       1.0  0.61060  0.88870  0.05668  1.0000
  C   C77       1.0  0.16550  0.40112  0.00280  1.0000
  C   C78       1.0  0.83450  0.59888  0.99720  1.0000
  C   C79       1.0  0.88674  0.01659  0.96504  1.0000
  C   C80       1.0  0.11326  0.98341  0.03496  1.0000
  H   H65       1.0  0.84430  0.05530  0.07130  1.0000
  H   H66       1.0  0.15570  0.94470  0.92870  1.0000
  H   H67       1.0  0.84670  0.13240  0.99420  1.0000
  H   H68       1.0  0.15330  0.86760  0.00580  1.0000
  H   H69       1.0  0.12990  0.16410  0.24580  1.0000
  H   H70       1.0  0.87010  0.83590  0.75420  1.0000
  H   H71       1.0  0.23890  0.09520  0.24740  1.0000
  H   H72       1.0  0.76110  0.90480  0.75260  1.0000
  H   H73       1.0  0.15830  0.08070  0.21510  1.0000
  H   H74       1.0  0.84170  0.91930  0.78490  1.0000
  C   C81       1.0  0.30170  0.29690  0.88758  1.0000
  C   C82       1.0  0.69830  0.70310  0.11242  1.0000
  H   H75       1.0  0.35650  0.09690  0.91190  1.0000
  H   H76       1.0  0.64350  0.90310  0.08810  1.0000
  H   H77       1.0  0.43260  0.05890  0.97440  1.0000
  H   H78       1.0  0.56740  0.94110  0.02560  1.0000
  H   H79       1.0  0.42860  0.14520  0.90760  1.0000
  H   H80       1.0  0.57140  0.85480  0.09240  1.0000
  H   H81       1.0  0.10000  0.41880  0.98830  1.0000
  H   H82       1.0  0.90000  0.58120  0.01170  1.0000
  H   H83       1.0  0.20880  0.42150  0.95670  1.0000
  H   H84       1.0  0.79120  0.57850  0.04330  1.0000
  H   H85       1.0  0.16040  0.42520  0.04660  1.0000
  H   H86       1.0  0.83960  0.57480  0.95340  1.0000
  C   C83       1.0  0.90156  0.92886  0.99898  1.0000
  C   C84       1.0  0.09844  0.07114  0.00102  1.0000
  C   C85       1.0  0.92830  0.04496  0.88462  1.0000
  C   C86       1.0  0.07170  0.95504  0.11538  1.0000
  O   O35       1.0  0.25477  0.27612  0.83856  1.0000
  O   O36       1.0  0.74523  0.72388  0.16144  1.0000
  H   H87       1.0  0.27860  0.35930  0.88000  1.0000
  H   H88       1.0  0.72140  0.64070  0.12000  1.0000
  H   H89       1.0  0.37410  0.27590  0.87240  1.0000
  H   H90       1.0  0.62590  0.72410  0.12760  1.0000
  C   C87       1.0  0.96060  0.86805  0.95272  1.0000
  C   C88       1.0  0.03940  0.13195  0.04728  1.0000
  C   C89       1.0  0.85210  0.90050  0.08439  1.0000
  C   C90       1.0  0.14790  0.09950  0.91561  1.0000
  C   C91       1.0  0.98787  0.98351  0.83993  1.0000
  C   C92       1.0  0.01213  0.01649  0.16007  1.0000
  C   C93       1.0  0.90850  0.14002  0.84719  1.0000
  C   C94       1.0  0.09150  0.85998  0.15281  1.0000
  C   C95       1.0  0.27990  0.30452  0.75525  1.0000
  C   C96       1.0  0.72010  0.69548  0.24475  1.0000
  C   C97       1.0  0.00580  0.89524  0.87391  1.0000
  C   C98       1.0  0.99420  0.10476  0.12609  1.0000
  C   C99       1.0  0.98330  0.77308  0.99024  1.0000
  C   C100      1.0  0.01670  0.22692  0.00976  1.0000
  H   H91       1.0  0.78330  0.93820  0.09090  1.0000
  H   H92       1.0  0.21670  0.06180  0.90910  1.0000
  H   H93       1.0  0.88680  0.90330  0.12240  1.0000
  H   H94       1.0  0.11320  0.09670  0.87760  1.0000
  H   H95       1.0  0.85490  0.84200  0.09410  1.0000
  H   H96       1.0  0.14510  0.15800  0.90590  1.0000
  C   C101      1.0  0.04302  0.01140  0.75766  1.0000
  C   C102      1.0  0.95698  0.98860  0.24234  1.0000
  H   H97       1.0  0.84760  0.17330  0.87530  1.0000
  H   H98       1.0  0.15240  0.82670  0.12470  1.0000
  H   H99       1.0  0.90190  0.15310  0.79100  1.0000
  H   H100      1.0  0.09810  0.84690  0.20900  1.0000
  H   H101      1.0  0.96350  0.15440  0.85130  1.0000
  H   H102      1.0  0.03650  0.84560  0.14870  1.0000
  C   C103      1.0  0.28130  0.38687  0.71876  1.0000
  C   C104      1.0  0.71870  0.61313  0.28124  1.0000
  C   C105      1.0  0.30140  0.24656  0.70869  1.0000
  C   C106      1.0  0.69860  0.75344  0.29131  1.0000
  C   C107      1.0  0.07600  0.82980  0.82610  1.0000
  C   C108      1.0  0.92400  0.17020  0.17390  1.0000
  O   O37       1.0  0.07996  0.74051  0.01620  1.0000
  O   O38       1.0  0.92004  0.25949  0.98380  1.0000
  H   H103      1.0  0.93250  0.76370  0.03620  1.0000
  H   H104      1.0  0.06750  0.23630  0.96380  1.0000
  H   H105      1.0  0.98480  0.74390  0.95090  1.0000
  H   H106      1.0  0.01520  0.25610  0.04910  1.0000
  O   O39       1.0  0.13943  0.00091  0.77198  1.0000
  O   O40       1.0  0.86057  0.99909  0.22802  1.0000
  H   H107      1.0  0.04990  0.97540  0.72270  1.0000
  H   H108      1.0  0.95010  0.02460  0.27730  1.0000
  H   H109      1.0  0.00770  0.07150  0.73220  1.0000
  H   H110      1.0  0.99230  0.92850  0.26780  1.0000
  H   H111      1.0  0.26440  0.42640  0.74980  1.0000
  H   H112      1.0  0.73560  0.57360  0.25020  1.0000
  C   C109      1.0  0.30800  0.41082  0.63524  1.0000
  C   C110      1.0  0.69200  0.58918  0.36476  1.0000
  C   C111      1.0  0.32720  0.27155  0.62538  1.0000
  C   C112      1.0  0.67280  0.72845  0.37462  1.0000
  H   H113      1.0  0.29850  0.19130  0.73320  1.0000
  H   H114      1.0  0.70150  0.80870  0.26680  1.0000
  H   H115      1.0  0.10700  0.77580  0.86290  1.0000
  H   H116      1.0  0.89300  0.22420  0.13710  1.0000
  H   H117      1.0  0.12700  0.85130  0.79090  1.0000
  H   H118      1.0  0.87300  0.14870  0.20910  1.0000
  H   H119      1.0  0.03870  0.82090  0.79420  1.0000
  H   H120      1.0  0.96130  0.17910  0.20580  1.0000
  C   C113      1.0  0.10490  0.66778  0.07743  1.0000
  C   C114      1.0  0.89510  0.33222  0.92257  1.0000
  C   C115      1.0  0.20540  0.02467  0.70747  1.0000
  C   C116      1.0  0.79460  0.97533  0.29253  1.0000
  H   H121      1.0  0.30980  0.46640  0.61080  1.0000
  H   H122      1.0  0.69020  0.53360  0.38920  1.0000
  C   C117      1.0  0.33193  0.35360  0.58775  1.0000
  C   C118      1.0  0.66807  0.64640  0.41225  1.0000
  H   H123      1.0  0.34170  0.23260  0.59410  1.0000
  H   H124      1.0  0.65830  0.76740  0.40590  1.0000
  C   C119      1.0  0.05140  0.61188  0.10969  1.0000
  C   C120      1.0  0.94860  0.38812  0.89031  1.0000
  C   C121      1.0  0.18970  0.65144  0.10915  1.0000
  C   C122      1.0  0.81030  0.34856  0.89085  1.0000
  C   C123      1.0  0.29910  0.00880  0.72436  1.0000
  C   C124      1.0  0.70090  0.99120  0.27564  1.0000
  C   C125      1.0  0.18420  0.06170  0.62923  1.0000
  C   C126      1.0  0.81580  0.93830  0.37077  1.0000
  C   C127      1.0  0.36650  0.37895  0.49873  1.0000
  C   C128      1.0  0.63350  0.62105  0.50127  1.0000
  H   H125      1.0  0.99520  0.62120  0.08800  1.0000
  H   H126      1.0  0.00480  0.37880  0.91200  1.0000
  C   C129      1.0  0.08230  0.54213  0.17440  1.0000
  C   C130      1.0  0.91770  0.45787  0.82560  1.0000
  C   C131      1.0  0.21920  0.58199  0.17387  1.0000
  C   C132      1.0  0.78080  0.41801  0.82613  1.0000
  H   H127      1.0  0.22710  0.68780  0.08640  1.0000
  H   H128      1.0  0.77290  0.31220  0.91360  1.0000
  H   H129      1.0  0.31360  0.98260  0.77720  1.0000
  H   H130      1.0  0.68640  0.01740  0.22280  1.0000
  C   C133      1.0  0.37110  0.03120  0.66395  1.0000
  C   C134      1.0  0.62890  0.96880  0.33605  1.0000
  C   C135      1.0  0.25670  0.08480  0.56882  1.0000
  C   C136      1.0  0.74330  0.91520  0.43118  1.0000
  H   H131      1.0  0.12200  0.07110  0.61700  1.0000
  H   H132      1.0  0.87800  0.92890  0.38300  1.0000
  H   H133      1.0  0.04620  0.50460  0.19590  1.0000
  H   H134      1.0  0.95380  0.49540  0.80410  1.0000
  C   C137      1.0  0.16528  0.52628  0.20823  1.0000
  C   C138      1.0  0.83472  0.47372  0.79177  1.0000
  H   H135      1.0  0.27600  0.57220  0.19490  1.0000
  H   H136      1.0  0.72400  0.42780  0.80510  1.0000
  H   H137      1.0  0.43390  0.02020  0.67600  1.0000
  H   H138      1.0  0.56610  0.97980  0.32400  1.0000
  C   C139      1.0  0.35000  0.07033  0.58481  1.0000
  C   C140      1.0  0.65000  0.92967  0.41519  1.0000
  H   H139      1.0  0.24200  0.11080  0.51600  1.0000
  H   H140      1.0  0.75800  0.88920  0.48400  1.0000
  C   C141      1.0  0.19503  0.45252  0.27977  1.0000
  C   C142      1.0  0.80497  0.54748  0.72023  1.0000
  C   C143      1.0  0.42370  0.10165  0.51852  1.0000
  C   C144      1.0  0.57630  0.89835  0.48148  1.0000
  O   O41       1.0  0.51299  0.07407  0.53088  1.0000
  O   O42       1.0  0.48701  0.92593  0.46912  1.0000
