data_image0
_chemical_formula_structural       Bi8O56C24H16C16H16C8
_chemical_formula_sum              "Bi8 O56 C48 H32"
_cell_length_a       16.4044
_cell_length_b       13.6668
_cell_length_c       10.257
_cell_angle_alpha    90
_cell_angle_beta     91.56
_cell_angle_gamma    90

_space_group_name_H-M_alt    "P 1"
_space_group_IT_number       1

loop_
  _space_group_symop_operation_xyz
  'x, y, z'

loop_
  _atom_site_type_symbol
  _atom_site_label
  _atom_site_symmetry_multiplicity
  _atom_site_fract_x
  _atom_site_fract_y
  _atom_site_fract_z
  _atom_site_occupancy
  Bi  Bi1       1.0  0.39786  0.12219  0.99455  1.0000
  Bi  Bi2       1.0  0.60214  0.12219  0.50545  1.0000
  Bi  Bi3       1.0  0.89786  0.62219  0.99455  1.0000
  Bi  Bi4       1.0  0.10214  0.62219  0.50545  1.0000
  Bi  Bi5       1.0  0.60214  0.87781  0.00545  1.0000
  Bi  Bi6       1.0  0.39786  0.87781  0.49455  1.0000
  Bi  Bi7       1.0  0.10214  0.37781  0.00545  1.0000
  Bi  Bi8       1.0  0.89786  0.37781  0.49455  1.0000
  O   O1        1.0  0.36620  0.00780  0.83780  1.0000
  O   O2        1.0  0.63380  0.00780  0.66220  1.0000
  O   O3        1.0  0.86620  0.50780  0.83780  1.0000
  O   O4        1.0  0.13380  0.50780  0.66220  1.0000
  O   O5        1.0  0.63380  0.99220  0.16220  1.0000
  O   O6        1.0  0.36620  0.99220  0.33780  1.0000
  O   O7        1.0  0.13380  0.49220  0.16220  1.0000
  O   O8        1.0  0.86620  0.49220  0.33780  1.0000
  O   O9        1.0  0.29480  0.99210  0.65250  1.0000
  O   O10       1.0  0.70520  0.99210  0.84750  1.0000
  O   O11       1.0  0.79480  0.49210  0.65250  1.0000
  O   O12       1.0  0.20520  0.49210  0.84750  1.0000
  O   O13       1.0  0.70520  0.00790  0.34750  1.0000
  O   O14       1.0  0.29480  0.00790  0.15250  1.0000
  O   O15       1.0  0.20520  0.50790  0.34750  1.0000
  O   O16       1.0  0.79480  0.50790  0.15250  1.0000
  O   O17       1.0  0.46570  0.07650  0.58030  1.0000
  O   O18       1.0  0.53430  0.07650  0.91970  1.0000
  O   O19       1.0  0.96570  0.57650  0.58030  1.0000
  O   O20       1.0  0.03430  0.57650  0.91970  1.0000
  O   O21       1.0  0.53430  0.92350  0.41970  1.0000
  O   O22       1.0  0.46570  0.92350  0.08030  1.0000
  O   O23       1.0  0.03430  0.42350  0.41970  1.0000
  O   O24       1.0  0.96570  0.42350  0.08030  1.0000
  O   O25       1.0  0.48380  0.22780  0.51570  1.0000
  O   O26       1.0  0.51620  0.22780  0.98430  1.0000
  O   O27       1.0  0.98380  0.72780  0.51570  1.0000
  O   O28       1.0  0.01620  0.72780  0.98430  1.0000
  O   O29       1.0  0.51620  0.77220  0.48430  1.0000
  O   O30       1.0  0.48380  0.77220  0.01570  1.0000
  O   O31       1.0  0.01620  0.27220  0.48430  1.0000
  O   O32       1.0  0.98380  0.27220  0.01570  1.0000
  O   O33       1.0  0.24660  0.13900  0.96450  1.0000
  O   O34       1.0  0.75340  0.13900  0.53550  1.0000
  O   O35       1.0  0.74660  0.63900  0.96450  1.0000
  O   O36       1.0  0.25340  0.63900  0.53550  1.0000
  O   O37       1.0  0.75340  0.86100  0.03550  1.0000
  O   O38       1.0  0.24660  0.86100  0.46450  1.0000
  O   O39       1.0  0.25340  0.36100  0.03550  1.0000
  O   O40       1.0  0.74660  0.36100  0.46450  1.0000
  O   O41       1.0  0.13590  0.22150  0.89300  1.0000
  O   O42       1.0  0.86410  0.22150  0.60700  1.0000
  O   O43       1.0  0.63590  0.72150  0.89300  1.0000
  O   O44       1.0  0.36410  0.72150  0.60700  1.0000
  O   O45       1.0  0.86410  0.77850  0.10700  1.0000
  O   O46       1.0  0.13590  0.77850  0.39300  1.0000
  O   O47       1.0  0.36410  0.27850  0.10700  1.0000
  O   O48       1.0  0.63590  0.27850  0.39300  1.0000
  O   O49       1.0  0.38040  0.20090  0.81270  1.0000
  O   O50       1.0  0.61960  0.20090  0.68730  1.0000
  O   O51       1.0  0.88040  0.70090  0.81270  1.0000
  O   O52       1.0  0.11960  0.70090  0.68730  1.0000
  O   O53       1.0  0.61960  0.79910  0.18730  1.0000
  O   O54       1.0  0.38040  0.79910  0.31270  1.0000
  O   O55       1.0  0.11960  0.29910  0.18730  1.0000
  O   O56       1.0  0.88040  0.29910  0.31270  1.0000
  C   C1        1.0  0.32770  0.04160  0.73530  1.0000
  C   C2        1.0  0.67230  0.04160  0.76470  1.0000
  C   C3        1.0  0.82770  0.54160  0.73530  1.0000
  C   C4        1.0  0.17230  0.54160  0.76470  1.0000
  C   C5        1.0  0.67230  0.95840  0.26470  1.0000
  C   C6        1.0  0.32770  0.95840  0.23530  1.0000
  C   C7        1.0  0.17230  0.45840  0.26470  1.0000
  C   C8        1.0  0.82770  0.45840  0.23530  1.0000
  C   C9        1.0  0.32620  0.15460  0.71850  1.0000
  C   C10       1.0  0.67380  0.15460  0.78150  1.0000
  C   C11       1.0  0.82620  0.65460  0.71850  1.0000
  C   C12       1.0  0.17380  0.65460  0.78150  1.0000
  C   C13       1.0  0.67380  0.84540  0.28150  1.0000
  C   C14       1.0  0.32620  0.84540  0.21850  1.0000
  C   C15       1.0  0.17380  0.34540  0.28150  1.0000
  C   C16       1.0  0.82620  0.34540  0.21850  1.0000
  C   C17       1.0  0.35100  0.18300  0.58310  1.0000
  C   C18       1.0  0.64900  0.18300  0.91690  1.0000
  C   C19       1.0  0.85100  0.68300  0.58310  1.0000
  C   C20       1.0  0.14900  0.68300  0.91690  1.0000
  C   C21       1.0  0.64900  0.81700  0.41690  1.0000
  C   C22       1.0  0.35100  0.81700  0.08310  1.0000
  C   C23       1.0  0.14900  0.31700  0.41690  1.0000
  C   C24       1.0  0.85100  0.31700  0.08310  1.0000
  H   H1        1.0  0.34120  0.25240  0.56990  1.0000
  H   H2        1.0  0.65880  0.25240  0.93010  1.0000
  H   H3        1.0  0.84120  0.75240  0.56990  1.0000
  H   H4        1.0  0.15880  0.75240  0.93010  1.0000
  H   H5        1.0  0.65880  0.74760  0.43010  1.0000
  H   H6        1.0  0.34120  0.74760  0.06990  1.0000
  H   H7        1.0  0.15880  0.24760  0.43010  1.0000
  H   H8        1.0  0.84120  0.24760  0.06990  1.0000
  H   H9        1.0  0.31790  0.14730  0.51920  1.0000
  H   H10       1.0  0.68210  0.14730  0.98080  1.0000
  H   H11       1.0  0.81790  0.64730  0.51920  1.0000
  H   H12       1.0  0.18210  0.64730  0.98080  1.0000
  H   H13       1.0  0.68210  0.85270  0.48080  1.0000
  H   H14       1.0  0.31790  0.85270  0.01920  1.0000
  H   H15       1.0  0.18210  0.35270  0.48080  1.0000
  H   H16       1.0  0.81790  0.35270  0.01920  1.0000
  C   C25       1.0  0.43990  0.16110  0.56310  1.0000
  C   C26       1.0  0.56010  0.16110  0.93690  1.0000
  C   C27       1.0  0.93990  0.66110  0.56310  1.0000
  C   C28       1.0  0.06010  0.66110  0.93690  1.0000
  C   C29       1.0  0.56010  0.83890  0.43690  1.0000
  C   C30       1.0  0.43990  0.83890  0.06310  1.0000
  C   C31       1.0  0.06010  0.33890  0.43690  1.0000
  C   C32       1.0  0.93990  0.33890  0.06310  1.0000
  C   C33       1.0  0.23720  0.19220  0.74090  1.0000
  C   C34       1.0  0.76280  0.19220  0.75910  1.0000
  C   C35       1.0  0.73720  0.69220  0.74090  1.0000
  C   C36       1.0  0.26280  0.69220  0.75910  1.0000
  C   C37       1.0  0.76280  0.80780  0.25910  1.0000
  C   C38       1.0  0.23720  0.80780  0.24090  1.0000
  C   C39       1.0  0.26280  0.30780  0.25910  1.0000
  C   C40       1.0  0.73720  0.30780  0.24090  1.0000
  H   H17       1.0  0.23480  0.26060  0.71590  1.0000
  H   H18       1.0  0.76520  0.26060  0.78410  1.0000
  H   H19       1.0  0.73480  0.76060  0.71590  1.0000
  H   H20       1.0  0.26520  0.76060  0.78410  1.0000
  H   H21       1.0  0.76520  0.73940  0.28410  1.0000
  H   H22       1.0  0.23480  0.73940  0.21590  1.0000
  H   H23       1.0  0.26520  0.23940  0.28410  1.0000
  H   H24       1.0  0.73480  0.23940  0.21590  1.0000
  H   H25       1.0  0.20060  0.15680  0.68190  1.0000
  H   H26       1.0  0.79940  0.15680  0.81810  1.0000
  H   H27       1.0  0.70060  0.65680  0.68190  1.0000
  H   H28       1.0  0.29940  0.65680  0.81810  1.0000
  H   H29       1.0  0.79940  0.84320  0.31810  1.0000
  H   H30       1.0  0.20060  0.84320  0.18190  1.0000
  H   H31       1.0  0.29940  0.34320  0.31810  1.0000
  H   H32       1.0  0.70060  0.34320  0.18190  1.0000
  C   C41       1.0  0.20510  0.18360  0.87460  1.0000
  C   C42       1.0  0.79490  0.18360  0.62540  1.0000
  C   C43       1.0  0.70510  0.68360  0.87460  1.0000
  C   C44       1.0  0.29490  0.68360  0.62540  1.0000
  C   C45       1.0  0.79490  0.81640  0.12540  1.0000
  C   C46       1.0  0.20510  0.81640  0.37460  1.0000
  C   C47       1.0  0.29490  0.31640  0.12540  1.0000
  C   C48       1.0  0.70510  0.31640  0.37460  1.0000
