data_image0
_chemical_formula_structural       Ce4O40N8C6H2C2H2C2H2C10H2C2H2C2H2C10H2C2H2C2H2C10H2C2H2C2H2C4H16
_chemical_formula_sum              "Ce4 O40 N8 C56 H40"
_cell_length_a       13.01
_cell_length_b       13.453
_cell_length_c       13.586
_cell_angle_alpha    99.95
_cell_angle_beta     99.87
_cell_angle_gamma    104.58

_space_group_name_H-M_alt    "P 1"
_space_group_IT_number       1

loop_
  _space_group_symop_operation_xyz
  'x, y, z'

loop_
  _atom_site_type_symbol
  _atom_site_label
  _atom_site_symmetry_multiplicity
  _atom_site_fract_x
  _atom_site_fract_y
  _atom_site_fract_z
  _atom_site_occupancy
  Ce  Ce1       1.0  0.00305  0.78322  0.21832  1.0000
  Ce  Ce2       1.0  0.99695  0.21678  0.78168  1.0000
  Ce  Ce3       1.0  0.50376  0.88864  0.18843  1.0000
  Ce  Ce4       1.0  0.49624  0.11136  0.81157  1.0000
  O   O1        1.0  0.21430  0.05040  0.10040  1.0000
  O   O2        1.0  0.78570  0.94960  0.89960  1.0000
  O   O3        1.0  0.14940  0.91100  0.16190  1.0000
  O   O4        1.0  0.85060  0.08900  0.83810  1.0000
  O   O5        1.0  0.69640  0.89720  0.20970  1.0000
  O   O6        1.0  0.30360  0.10280  0.79030  1.0000
  O   O7        1.0  0.82460  0.81430  0.23510  1.0000
  O   O8        1.0  0.17540  0.18570  0.76490  1.0000
  O   O9        1.0  0.81310  0.58840  0.88840  1.0000
  O   O10       1.0  0.18690  0.41160  0.11160  1.0000
  O   O11       1.0  0.86510  0.69450  0.04530  1.0000
  O   O12       1.0  0.13490  0.30550  0.95470  1.0000
  O   O13       1.0  0.33830  0.75790  0.20040  1.0000
  O   O14       1.0  0.66170  0.24210  0.79960  1.0000
  O   O15       1.0  0.18600  0.74630  0.25820  1.0000
  O   O16       1.0  0.81400  0.25370  0.74180  1.0000
  O   O17       1.0  0.87550  0.48520  0.33460  1.0000
  O   O18       1.0  0.12450  0.51480  0.66540  1.0000
  O   O19       1.0  0.90970  0.61000  0.24300  1.0000
  O   O20       1.0  0.09030  0.39000  0.75700  1.0000
  O   O21       1.0  0.13500  0.02130  0.54010  1.0000
  O   O22       1.0  0.86500  0.97870  0.45990  1.0000
  O   O23       1.0  0.09110  0.94580  0.37150  1.0000
  O   O24       1.0  0.90890  0.05420  0.62850  1.0000
  O   O25       1.0  0.60210  0.93010  0.53940  1.0000
  O   O26       1.0  0.39790  0.06990  0.46060  1.0000
  O   O27       1.0  0.54090  0.87200  0.37070  1.0000
  O   O28       1.0  0.45910  0.12800  0.62930  1.0000
  O   O29       1.0  0.63150  0.23530  0.16970  1.0000
  O   O30       1.0  0.36850  0.76470  0.83030  1.0000
  O   O31       1.0  0.57960  0.05880  0.13700  1.0000
  O   O32       1.0  0.42040  0.94120  0.86300  1.0000
  O   O33       1.0  0.37610  0.98640  0.26140  1.0000
  O   O34       1.0  0.62390  0.01360  0.73860  1.0000
  O   O35       1.0  0.35810  0.91700  0.04960  1.0000
  O   O36       1.0  0.64190  0.08300  0.95040  1.0000
  O   O37       1.0  0.51520  0.81040  0.01380  1.0000
  O   O38       1.0  0.48480  0.18960  0.98620  1.0000
  O   O39       1.0  0.53050  0.70010  0.18610  1.0000
  O   O40       1.0  0.46950  0.29990  0.81390  1.0000
  N   N1        1.0  0.96200  0.95040  0.16410  1.0000
  N   N2        1.0  0.03800  0.04960  0.83590  1.0000
  N   N3        1.0  0.06400  0.67750  0.06860  1.0000
  N   N4        1.0  0.93600  0.32250  0.93140  1.0000
  N   N5        1.0  0.00620  0.75810  0.40760  1.0000
  N   N6        1.0  0.99380  0.24190  0.59240  1.0000
  N   N7        1.0  0.61350  0.05870  0.33390  1.0000
  N   N8        1.0  0.38650  0.94130  0.66610  1.0000
  C   C1        1.0  0.14210  0.99290  0.13180  1.0000
  C   C2        1.0  0.85790  0.00710  0.86820  1.0000
  C   C3        1.0  0.03640  0.02090  0.13510  1.0000
  C   C4        1.0  0.96360  0.97910  0.86490  1.0000
  C   C5        1.0  0.01830  0.11180  0.11060  1.0000
  C   C6        1.0  0.98170  0.88820  0.88940  1.0000
  H   H1        1.0  0.07210  0.16070  0.09260  1.0000
  H   H2        1.0  0.92790  0.83930  0.90740  1.0000
  C   C7        1.0  0.91690  0.12770  0.11370  1.0000
  C   C8        1.0  0.08310  0.87230  0.88630  1.0000
  H   H3        1.0  0.90140  0.18680  0.09570  1.0000
  H   H4        1.0  0.09860  0.81320  0.90430  1.0000
  C   C9        1.0  0.83960  0.05560  0.14370  1.0000
  C   C10       1.0  0.16040  0.94440  0.85630  1.0000
  H   H5        1.0  0.77200  0.06550  0.14710  1.0000
  H   H6        1.0  0.22800  0.93450  0.85290  1.0000
  C   C11       1.0  0.86590  0.96750  0.16890  1.0000
  C   C12       1.0  0.13410  0.03250  0.83110  1.0000
  C   C13       1.0  0.78840  0.88630  0.20730  1.0000
  C   C14       1.0  0.21160  0.11370  0.79270  1.0000
  C   C15       1.0  0.88150  0.63740  0.96850  1.0000
  C   C16       1.0  0.11850  0.36260  0.03150  1.0000
  C   C17       1.0  0.99770  0.63350  0.97580  1.0000
  C   C18       1.0  0.00230  0.36650  0.02420  1.0000
  C   C19       1.0  0.03550  0.59350  0.89280  1.0000
  C   C20       1.0  0.96450  0.40650  0.10720  1.0000
  H   H7        1.0  0.98720  0.55990  0.83020  1.0000
  H   H8        1.0  0.01280  0.44010  0.16980  1.0000
  C   C21       1.0  0.14630  0.60420  0.90400  1.0000
  C   C22       1.0  0.85370  0.39580  0.09600  1.0000
  H   H9        1.0  0.17390  0.58100  0.84830  1.0000
  H   H10       1.0  0.82610  0.41900  0.15170  1.0000
  C   C23       1.0  0.21470  0.65030  0.00020  1.0000
  C   C24       1.0  0.78530  0.34970  0.99980  1.0000
  H   H11       1.0  0.28920  0.65830  0.01050  1.0000
  H   H12       1.0  0.71080  0.34170  0.98950  1.0000
  C   C25       1.0  0.17000  0.68410  0.08080  1.0000
  C   C26       1.0  0.83000  0.31590  0.91920  1.0000
  C   C27       1.0  0.23630  0.73370  0.18870  1.0000
  C   C28       1.0  0.76370  0.26630  0.81130  1.0000
  C   C29       1.0  0.91270  0.57640  0.32610  1.0000
  C   C30       1.0  0.08730  0.42360  0.67390  1.0000
  C   C31       1.0  0.96760  0.66140  0.42310  1.0000
  C   C32       1.0  0.03240  0.33860  0.57690  1.0000
  C   C33       1.0  0.97300  0.64130  0.52070  1.0000
  C   C34       1.0  0.02700  0.35870  0.47930  1.0000
  H   H13       1.0  0.94770  0.57300  0.52930  1.0000
  H   H14       1.0  0.05230  0.42700  0.47070  1.0000
  C   C35       1.0  0.01690  0.72570  0.60470  1.0000
  C   C36       1.0  0.98310  0.27430  0.39530  1.0000
  H   H15       1.0  0.02150  0.71470  0.67090  1.0000
  H   H16       1.0  0.97850  0.28530  0.32910  1.0000
  C   C37       1.0  0.05400  0.82690  0.58910  1.0000
  C   C38       1.0  0.94600  0.17310  0.41090  1.0000
  H   H17       1.0  0.08170  0.88500  0.64420  1.0000
  H   H18       1.0  0.91830  0.11500  0.35580  1.0000
  C   C39       1.0  0.04860  0.83880  0.48900  1.0000
  C   C40       1.0  0.95140  0.16120  0.51100  1.0000
  C   C41       1.0  0.09440  0.94330  0.46350  1.0000
  C   C42       1.0  0.90560  0.05670  0.53650  1.0000
  C   C43       1.0  0.59070  0.94440  0.45130  1.0000
  C   C44       1.0  0.40930  0.05560  0.54870  1.0000
  C   C45       1.0  0.63530  0.05310  0.43250  1.0000
  C   C46       1.0  0.36470  0.94690  0.56750  1.0000
  C   C47       1.0  0.69260  0.14060  0.51140  1.0000
  C   C48       1.0  0.30740  0.85940  0.48860  1.0000
  H   H19       1.0  0.70490  0.13510  0.57950  1.0000
  H   H20       1.0  0.29510  0.86490  0.42050  1.0000
  C   C49       1.0  0.73100  0.23660  0.48530  1.0000
  C   C50       1.0  0.26900  0.76340  0.51470  1.0000
  H   H21       1.0  0.77120  0.29610  0.53600  1.0000
  H   H22       1.0  0.22880  0.70390  0.46400  1.0000
  C   C51       1.0  0.70910  0.24350  0.38290  1.0000
  C   C52       1.0  0.29090  0.75650  0.61710  1.0000
  H   H23       1.0  0.73420  0.30690  0.36410  1.0000
  H   H24       1.0  0.26580  0.69310  0.63590  1.0000
  C   C53       1.0  0.64850  0.15250  0.31010  1.0000
  C   C54       1.0  0.35150  0.84750  0.68990  1.0000
  C   C55       1.0  0.61750  0.15010  0.19680  1.0000
  C   C56       1.0  0.38250  0.84990  0.80320  1.0000
  H   H25       1.0  0.31100  0.96500  0.23600  1.0000
  H   H26       1.0  0.68900  0.03500  0.76400  1.0000
  H   H27       1.0  0.33300  0.97100  0.07000  1.0000
  H   H28       1.0  0.66700  0.02900  0.93000  1.0000
  H   H29       1.0  0.46800  0.80400  0.96300  1.0000
  H   H30       1.0  0.53200  0.19600  0.03700  1.0000
  H   H31       1.0  0.59200  0.69400  0.17600  1.0000
  H   H32       1.0  0.40800  0.30600  0.82400  1.0000
  H   H33       1.0  0.37800  0.99800  0.32400  1.0000
  H   H34       1.0  0.62200  0.00200  0.67600  1.0000
  H   H35       1.0  0.38500  0.92800  0.99500  1.0000
  H   H36       1.0  0.61500  0.07200  0.00500  1.0000
  H   H37       1.0  0.57500  0.79500  0.00200  1.0000
  H   H38       1.0  0.42500  0.20500  0.99800  1.0000
  H   H39       1.0  0.48300  0.65400  0.16300  1.0000
  H   H40       1.0  0.51700  0.34600  0.83700  1.0000
