data_image0
_chemical_formula_structural       U8O64C16H16C16H16C16H16C16H24C16H24C16H24
_chemical_formula_sum              "U8 O64 C96 H120"
_cell_length_a       18.4734
_cell_length_b       16.8473
_cell_length_c       19.528
_cell_angle_alpha    90
_cell_angle_beta     90
_cell_angle_gamma    90

_space_group_name_H-M_alt    "P 1"
_space_group_IT_number       1

loop_
  _space_group_symop_operation_xyz
  'x, y, z'

loop_
  _atom_site_type_symbol
  _atom_site_label
  _atom_site_symmetry_multiplicity
  _atom_site_fract_x
  _atom_site_fract_y
  _atom_site_fract_z
  _atom_site_occupancy
  U   U1        1.0  0.36596  0.33729  0.71371  1.0000
  U   U2        1.0  0.13404  0.66271  0.21371  1.0000
  U   U3        1.0  0.63404  0.83729  0.78629  1.0000
  U   U4        1.0  0.86596  0.16271  0.28629  1.0000
  U   U5        1.0  0.63404  0.66271  0.28629  1.0000
  U   U6        1.0  0.86596  0.33729  0.78629  1.0000
  U   U7        1.0  0.36596  0.16271  0.21371  1.0000
  U   U8        1.0  0.13404  0.83729  0.71371  1.0000
  O   O1        1.0  0.32378  0.35491  0.79344  1.0000
  O   O2        1.0  0.17622  0.64509  0.29344  1.0000
  O   O3        1.0  0.67622  0.85491  0.70656  1.0000
  O   O4        1.0  0.82378  0.14509  0.20656  1.0000
  O   O5        1.0  0.67622  0.64509  0.20656  1.0000
  O   O6        1.0  0.82378  0.35491  0.70656  1.0000
  O   O7        1.0  0.32378  0.14509  0.29344  1.0000
  O   O8        1.0  0.17622  0.85491  0.79344  1.0000
  O   O9        1.0  0.40926  0.31891  0.63407  1.0000
  O   O10       1.0  0.09074  0.68109  0.13407  1.0000
  O   O11       1.0  0.59074  0.81891  0.86593  1.0000
  O   O12       1.0  0.90926  0.18109  0.36593  1.0000
  O   O13       1.0  0.59074  0.68109  0.36593  1.0000
  O   O14       1.0  0.90926  0.31891  0.86593  1.0000
  O   O15       1.0  0.40926  0.18109  0.13407  1.0000
  O   O16       1.0  0.09074  0.81891  0.63407  1.0000
  O   O17       1.0  0.32797  0.46458  0.66544  1.0000
  O   O18       1.0  0.17203  0.53542  0.16544  1.0000
  O   O19       1.0  0.67203  0.96458  0.83456  1.0000
  O   O20       1.0  0.82797  0.03542  0.33456  1.0000
  O   O21       1.0  0.67203  0.53542  0.33456  1.0000
  O   O22       1.0  0.82797  0.46458  0.83456  1.0000
  O   O23       1.0  0.32797  0.03542  0.16544  1.0000
  O   O24       1.0  0.17203  0.96458  0.66544  1.0000
  O   O25       1.0  0.42866  0.46967  0.72332  1.0000
  O   O26       1.0  0.07134  0.53033  0.22332  1.0000
  O   O27       1.0  0.57134  0.96967  0.77668  1.0000
  O   O28       1.0  0.92866  0.03033  0.27668  1.0000
  O   O29       1.0  0.57134  0.53033  0.27668  1.0000
  O   O30       1.0  0.92866  0.46967  0.77668  1.0000
  O   O31       1.0  0.42866  0.03033  0.22332  1.0000
  O   O32       1.0  0.07134  0.96967  0.72332  1.0000
  O   O33       1.0  0.51623  0.82783  0.73045  1.0000
  O   O34       1.0  0.98377  0.17217  0.23045  1.0000
  O   O35       1.0  0.48377  0.32783  0.76955  1.0000
  O   O36       1.0  0.01623  0.67217  0.26955  1.0000
  O   O37       1.0  0.48377  0.17217  0.26955  1.0000
  O   O38       1.0  0.01623  0.82783  0.76955  1.0000
  O   O39       1.0  0.51623  0.67217  0.23045  1.0000
  O   O40       1.0  0.98377  0.32783  0.73045  1.0000
  O   O41       1.0  0.57632  0.71698  0.73863  1.0000
  O   O42       1.0  0.92368  0.28302  0.23863  1.0000
  O   O43       1.0  0.42368  0.21698  0.76137  1.0000
  O   O44       1.0  0.07632  0.78302  0.26137  1.0000
  O   O45       1.0  0.42368  0.28302  0.26137  1.0000
  O   O46       1.0  0.07632  0.71698  0.76137  1.0000
  O   O47       1.0  0.57632  0.78302  0.23863  1.0000
  O   O48       1.0  0.92368  0.21698  0.73863  1.0000
  O   O49       1.0  0.21340  0.72176  0.69778  1.0000
  O   O50       1.0  0.28660  0.27824  0.19778  1.0000
  O   O51       1.0  0.78660  0.22176  0.80222  1.0000
  O   O52       1.0  0.71340  0.77824  0.30222  1.0000
  O   O53       1.0  0.78660  0.27824  0.30222  1.0000
  O   O54       1.0  0.71340  0.72176  0.80222  1.0000
  O   O55       1.0  0.21340  0.77824  0.19778  1.0000
  O   O56       1.0  0.28660  0.22176  0.69778  1.0000
  O   O57       1.0  0.25412  0.83351  0.65708  1.0000
  O   O58       1.0  0.24588  0.16649  0.15708  1.0000
  O   O59       1.0  0.74588  0.33351  0.84292  1.0000
  O   O60       1.0  0.75412  0.66649  0.34292  1.0000
  O   O61       1.0  0.74588  0.16649  0.34292  1.0000
  O   O62       1.0  0.75412  0.83351  0.84292  1.0000
  O   O63       1.0  0.25412  0.66649  0.15708  1.0000
  O   O64       1.0  0.24588  0.33351  0.65708  1.0000
  C   C1        1.0  0.39808  0.58376  0.65081  1.0000
  C   C2        1.0  0.10192  0.41624  0.15081  1.0000
  C   C3        1.0  0.60192  0.08376  0.84919  1.0000
  C   C4        1.0  0.89808  0.91624  0.34919  1.0000
  C   C5        1.0  0.60192  0.41624  0.34919  1.0000
  C   C6        1.0  0.89808  0.58376  0.84919  1.0000
  C   C7        1.0  0.39808  0.91624  0.15081  1.0000
  C   C8        1.0  0.10192  0.08376  0.65081  1.0000
  C   C9        1.0  0.46073  0.62753  0.68638  1.0000
  C   C10       1.0  0.03927  0.37247  0.18638  1.0000
  C   C11       1.0  0.53927  0.12753  0.81362  1.0000
  C   C12       1.0  0.96073  0.87247  0.31362  1.0000
  C   C13       1.0  0.53927  0.37247  0.31362  1.0000
  C   C14       1.0  0.96073  0.62753  0.81362  1.0000
  C   C15       1.0  0.46073  0.87247  0.18638  1.0000
  C   C16       1.0  0.03927  0.12753  0.68638  1.0000
  H   H1        1.0  0.50647  0.59968  0.67542  1.0000
  H   H2        1.0  0.99353  0.40032  0.17542  1.0000
  H   H3        1.0  0.49353  0.09968  0.82458  1.0000
  H   H4        1.0  0.00647  0.90032  0.32458  1.0000
  H   H5        1.0  0.49353  0.40032  0.32458  1.0000
  H   H6        1.0  0.00647  0.59968  0.82458  1.0000
  H   H7        1.0  0.50647  0.90032  0.17542  1.0000
  H   H8        1.0  0.99353  0.09968  0.67542  1.0000
  H   H9        1.0  0.45351  0.62409  0.73653  1.0000
  H   H10       1.0  0.04649  0.37591  0.23653  1.0000
  H   H11       1.0  0.54649  0.12409  0.76347  1.0000
  H   H12       1.0  0.95351  0.87591  0.26347  1.0000
  H   H13       1.0  0.54649  0.37591  0.26347  1.0000
  H   H14       1.0  0.95351  0.62409  0.76347  1.0000
  H   H15       1.0  0.45351  0.87591  0.23653  1.0000
  H   H16       1.0  0.04649  0.12409  0.73653  1.0000
  C   C17       1.0  0.46905  0.71593  0.66654  1.0000
  C   C18       1.0  0.03095  0.28407  0.16654  1.0000
  C   C19       1.0  0.53095  0.21593  0.83346  1.0000
  C   C20       1.0  0.96905  0.78407  0.33346  1.0000
  C   C21       1.0  0.53095  0.28407  0.33346  1.0000
  C   C22       1.0  0.96905  0.71593  0.83346  1.0000
  C   C23       1.0  0.46905  0.78407  0.16654  1.0000
  C   C24       1.0  0.03095  0.21593  0.66654  1.0000
  C   C25       1.0  0.39598  0.75994  0.67217  1.0000
  C   C26       1.0  0.10402  0.24006  0.17217  1.0000
  C   C27       1.0  0.60402  0.25994  0.82783  1.0000
  C   C28       1.0  0.89598  0.74006  0.32783  1.0000
  C   C29       1.0  0.60402  0.24006  0.32783  1.0000
  C   C30       1.0  0.89598  0.75994  0.82783  1.0000
  C   C31       1.0  0.39598  0.74006  0.17217  1.0000
  C   C32       1.0  0.10402  0.25994  0.67217  1.0000
  H   H17       1.0  0.40146  0.81288  0.65079  1.0000
  H   H18       1.0  0.09854  0.18712  0.15079  1.0000
  H   H19       1.0  0.59854  0.31288  0.84921  1.0000
  H   H20       1.0  0.90146  0.68712  0.34921  1.0000
  H   H21       1.0  0.59854  0.18712  0.34921  1.0000
  H   H22       1.0  0.90146  0.81288  0.84921  1.0000
  H   H23       1.0  0.40146  0.68712  0.15079  1.0000
  H   H24       1.0  0.09854  0.31288  0.65079  1.0000
  H   H25       1.0  0.38527  0.76845  0.72130  1.0000
  H   H26       1.0  0.11473  0.23155  0.22130  1.0000
  H   H27       1.0  0.61473  0.26845  0.77870  1.0000
  H   H28       1.0  0.88527  0.73155  0.27870  1.0000
  H   H29       1.0  0.61473  0.23155  0.27870  1.0000
  H   H30       1.0  0.88527  0.76845  0.77870  1.0000
  H   H31       1.0  0.38527  0.73155  0.22130  1.0000
  H   H32       1.0  0.11473  0.26845  0.72130  1.0000
  C   C33       1.0  0.33008  0.71826  0.63908  1.0000
  C   C34       1.0  0.16992  0.28174  0.13908  1.0000
  C   C35       1.0  0.66992  0.21826  0.86092  1.0000
  C   C36       1.0  0.83008  0.78174  0.36092  1.0000
  C   C37       1.0  0.66992  0.28174  0.36092  1.0000
  C   C38       1.0  0.83008  0.71826  0.86092  1.0000
  C   C39       1.0  0.33008  0.78174  0.13908  1.0000
  C   C40       1.0  0.16992  0.21826  0.63908  1.0000
  C   C41       1.0  0.32732  0.63075  0.65976  1.0000
  C   C42       1.0  0.17268  0.36925  0.15976  1.0000
  C   C43       1.0  0.67268  0.13075  0.84024  1.0000
  C   C44       1.0  0.82732  0.86925  0.34024  1.0000
  C   C45       1.0  0.67268  0.36925  0.34024  1.0000
  C   C46       1.0  0.82732  0.63075  0.84024  1.0000
  C   C47       1.0  0.32732  0.86925  0.15976  1.0000
  C   C48       1.0  0.17268  0.13075  0.65976  1.0000
  H   H33       1.0  0.28911  0.60438  0.63245  1.0000
  H   H34       1.0  0.21089  0.39562  0.13245  1.0000
  H   H35       1.0  0.71089  0.10438  0.86755  1.0000
  H   H36       1.0  0.78911  0.89562  0.36755  1.0000
  H   H37       1.0  0.71089  0.39562  0.36755  1.0000
  H   H38       1.0  0.78911  0.60438  0.86755  1.0000
  H   H39       1.0  0.28911  0.89562  0.13245  1.0000
  H   H40       1.0  0.21089  0.10438  0.63245  1.0000
  H   H41       1.0  0.31270  0.62763  0.70846  1.0000
  H   H42       1.0  0.18730  0.37237  0.20846  1.0000
  H   H43       1.0  0.68730  0.12763  0.79154  1.0000
  H   H44       1.0  0.81270  0.87237  0.29154  1.0000
  H   H45       1.0  0.68730  0.37237  0.29154  1.0000
  H   H46       1.0  0.81270  0.62763  0.79154  1.0000
  H   H47       1.0  0.31270  0.87237  0.20846  1.0000
  H   H48       1.0  0.18730  0.12763  0.70846  1.0000
  C   C49       1.0  0.38446  0.50258  0.68350  1.0000
  C   C50       1.0  0.11554  0.49742  0.18350  1.0000
  C   C51       1.0  0.61554  0.00258  0.81650  1.0000
  C   C52       1.0  0.88446  0.99742  0.31650  1.0000
  C   C53       1.0  0.61554  0.49742  0.31650  1.0000
  C   C54       1.0  0.88446  0.50258  0.81650  1.0000
  C   C55       1.0  0.38446  0.99742  0.18350  1.0000
  C   C56       1.0  0.11554  0.00258  0.68350  1.0000
  C   C57       1.0  0.41493  0.56146  0.57552  1.0000
  C   C58       1.0  0.08507  0.43854  0.07552  1.0000
  C   C59       1.0  0.58507  0.06146  0.92448  1.0000
  C   C60       1.0  0.91493  0.93854  0.42448  1.0000
  C   C61       1.0  0.58507  0.43854  0.42448  1.0000
  C   C62       1.0  0.91493  0.56146  0.92448  1.0000
  C   C63       1.0  0.41493  0.93854  0.07552  1.0000
  C   C64       1.0  0.08507  0.06146  0.57552  1.0000
  H   H49       1.0  0.44967  0.51751  0.57454  1.0000
  H   H50       1.0  0.05033  0.48249  0.07454  1.0000
  H   H51       1.0  0.55033  0.01751  0.92546  1.0000
  H   H52       1.0  0.94967  0.98249  0.42546  1.0000
  H   H53       1.0  0.55033  0.48249  0.42546  1.0000
  H   H54       1.0  0.94967  0.51751  0.92546  1.0000
  H   H55       1.0  0.44967  0.98249  0.07454  1.0000
  H   H56       1.0  0.05033  0.01751  0.57454  1.0000
  H   H57       1.0  0.43560  0.60749  0.55189  1.0000
  H   H58       1.0  0.06440  0.39251  0.05189  1.0000
  H   H59       1.0  0.56440  0.10749  0.94811  1.0000
  H   H60       1.0  0.93560  0.89251  0.44811  1.0000
  H   H61       1.0  0.56440  0.39251  0.44811  1.0000
  H   H62       1.0  0.93560  0.60749  0.94811  1.0000
  H   H63       1.0  0.43560  0.89251  0.05189  1.0000
  H   H64       1.0  0.06440  0.10749  0.55189  1.0000
  H   H65       1.0  0.37016  0.54526  0.55251  1.0000
  H   H66       1.0  0.12984  0.45474  0.05251  1.0000
  H   H67       1.0  0.62984  0.04526  0.94749  1.0000
  H   H68       1.0  0.87016  0.95474  0.44749  1.0000
  H   H69       1.0  0.62984  0.45474  0.44749  1.0000
  H   H70       1.0  0.87016  0.54526  0.94749  1.0000
  H   H71       1.0  0.37016  0.95474  0.05251  1.0000
  H   H72       1.0  0.12984  0.04526  0.55251  1.0000
  C   C65       1.0  0.52268  0.75461  0.71595  1.0000
  C   C66       1.0  0.97732  0.24539  0.21595  1.0000
  C   C67       1.0  0.47732  0.25461  0.78405  1.0000
  C   C68       1.0  0.02268  0.74539  0.28405  1.0000
  C   C69       1.0  0.47732  0.24539  0.28405  1.0000
  C   C70       1.0  0.02268  0.75461  0.78405  1.0000
  C   C71       1.0  0.52268  0.74539  0.21595  1.0000
  C   C72       1.0  0.97732  0.25461  0.71595  1.0000
  C   C73       1.0  0.50624  0.72958  0.59655  1.0000
  C   C74       1.0  0.99376  0.27042  0.09655  1.0000
  C   C75       1.0  0.49376  0.22958  0.90345  1.0000
  C   C76       1.0  0.00624  0.77042  0.40345  1.0000
  C   C77       1.0  0.49376  0.27042  0.40345  1.0000
  C   C78       1.0  0.00624  0.72958  0.90345  1.0000
  C   C79       1.0  0.50624  0.77042  0.09655  1.0000
  C   C80       1.0  0.99376  0.22958  0.59655  1.0000
  H   H73       1.0  0.55027  0.69729  0.59387  1.0000
  H   H74       1.0  0.94973  0.30271  0.09387  1.0000
  H   H75       1.0  0.44973  0.19729  0.90613  1.0000
  H   H76       1.0  0.05027  0.80271  0.40613  1.0000
  H   H77       1.0  0.44973  0.30271  0.40613  1.0000
  H   H78       1.0  0.05027  0.69729  0.90613  1.0000
  H   H79       1.0  0.55027  0.80271  0.09387  1.0000
  H   H80       1.0  0.94973  0.19729  0.59387  1.0000
  H   H81       1.0  0.51890  0.78580  0.59180  1.0000
  H   H82       1.0  0.98110  0.21420  0.09180  1.0000
  H   H83       1.0  0.48110  0.28580  0.90820  1.0000
  H   H84       1.0  0.01890  0.71420  0.40820  1.0000
  H   H85       1.0  0.48110  0.21420  0.40820  1.0000
  H   H86       1.0  0.01890  0.78580  0.90820  1.0000
  H   H87       1.0  0.51890  0.71420  0.09180  1.0000
  H   H88       1.0  0.98110  0.28580  0.59180  1.0000
  H   H89       1.0  0.47310  0.71430  0.55965  1.0000
  H   H90       1.0  0.02690  0.28570  0.05965  1.0000
  H   H91       1.0  0.52690  0.21430  0.94035  1.0000
  H   H92       1.0  0.97310  0.78570  0.44035  1.0000
  H   H93       1.0  0.52690  0.28570  0.44035  1.0000
  H   H94       1.0  0.97310  0.71430  0.94035  1.0000
  H   H95       1.0  0.47310  0.78570  0.05965  1.0000
  H   H96       1.0  0.02690  0.21430  0.55965  1.0000
  C   C81       1.0  0.26202  0.75976  0.66678  1.0000
  C   C82       1.0  0.23798  0.24024  0.16678  1.0000
  C   C83       1.0  0.73798  0.25976  0.83322  1.0000
  C   C84       1.0  0.76202  0.74024  0.33322  1.0000
  C   C85       1.0  0.73798  0.24024  0.33322  1.0000
  C   C86       1.0  0.76202  0.75976  0.83322  1.0000
  C   C87       1.0  0.26202  0.74024  0.16678  1.0000
  C   C88       1.0  0.23798  0.25976  0.66678  1.0000
  C   C89       1.0  0.32649  0.73048  0.56089  1.0000
  C   C90       1.0  0.17351  0.26952  0.06089  1.0000
  C   C91       1.0  0.67351  0.23048  0.93911  1.0000
  C   C92       1.0  0.82649  0.76952  0.43911  1.0000
  C   C93       1.0  0.67351  0.26952  0.43911  1.0000
  C   C94       1.0  0.82649  0.73048  0.93911  1.0000
  C   C95       1.0  0.32649  0.76952  0.06089  1.0000
  C   C96       1.0  0.17351  0.23048  0.56089  1.0000
  H   H97       1.0  0.36647  0.70186  0.53902  1.0000
  H   H98       1.0  0.13353  0.29814  0.03902  1.0000
  H   H99       1.0  0.63353  0.20186  0.96098  1.0000
  H   H100      1.0  0.86647  0.79814  0.46098  1.0000
  H   H101      1.0  0.63353  0.29814  0.46098  1.0000
  H   H102      1.0  0.86647  0.70186  0.96098  1.0000
  H   H103      1.0  0.36647  0.79814  0.03902  1.0000
  H   H104      1.0  0.13353  0.20186  0.53902  1.0000
  H   H105      1.0  0.33042  0.78721  0.55043  1.0000
  H   H106      1.0  0.16958  0.21279  0.05043  1.0000
  H   H107      1.0  0.66958  0.28721  0.94957  1.0000
  H   H108      1.0  0.83042  0.71279  0.44957  1.0000
  H   H109      1.0  0.66958  0.21279  0.44957  1.0000
  H   H110      1.0  0.83042  0.78721  0.94957  1.0000
  H   H111      1.0  0.33042  0.71279  0.05043  1.0000
  H   H112      1.0  0.16958  0.28721  0.55043  1.0000
  H   H113      1.0  0.28030  0.71014  0.54352  1.0000
  H   H114      1.0  0.21970  0.28986  0.04352  1.0000
  H   H115      1.0  0.71970  0.21014  0.95648  1.0000
  H   H116      1.0  0.78030  0.78986  0.45648  1.0000
  H   H117      1.0  0.71970  0.28986  0.45648  1.0000
  H   H118      1.0  0.78030  0.71014  0.95648  1.0000
  H   H119      1.0  0.28030  0.78986  0.04352  1.0000
  H   H120      1.0  0.21970  0.21014  0.54352  1.0000
