data_image0
_chemical_formula_structural       U2O16C4H4C4H4C4H4C4H6C4H6C4H6
_chemical_formula_sum              "U2 O16 C24 H30"
_cell_length_a       9.883
_cell_length_b       14.5207
_cell_length_c       11.5287
_cell_angle_alpha    90
_cell_angle_beta     101.967
_cell_angle_gamma    90

_space_group_name_H-M_alt    "P 1"
_space_group_IT_number       1

loop_
  _space_group_symop_operation_xyz
  'x, y, z'

loop_
  _atom_site_type_symbol
  _atom_site_label
  _atom_site_symmetry_multiplicity
  _atom_site_fract_x
  _atom_site_fract_y
  _atom_site_fract_z
  _atom_site_occupancy
  U   U1        1.0  0.70740  0.38230  0.37279  1.0000
  U   U2        1.0  0.29260  0.88230  0.62721  1.0000
  O   O1        1.0  0.72660  0.44320  0.50820  1.0000
  O   O2        1.0  0.27340  0.94320  0.49180  1.0000
  O   O3        1.0  0.68850  0.31800  0.23900  1.0000
  O   O4        1.0  0.31150  0.81800  0.76100  1.0000
  O   O5        1.0  0.44550  0.38820  0.34750  1.0000
  O   O6        1.0  0.55450  0.88820  0.65250  1.0000
  O   O7        1.0  0.55240  0.49880  0.27520  1.0000
  O   O8        1.0  0.44760  0.99880  0.72480  1.0000
  O   O9        1.0  0.81450  0.50480  0.27940  1.0000
  O   O10       1.0  0.18550  0.00480  0.72060  1.0000
  O   O11       1.0  0.96070  0.40850  0.38080  1.0000
  O   O12       1.0  0.03930  0.90850  0.61920  1.0000
  O   O13       1.0  0.15520  0.75820  0.52300  1.0000
  O   O14       1.0  0.84480  0.25820  0.47700  1.0000
  O   O15       1.0  0.37650  0.75200  0.52120  1.0000
  O   O16       1.0  0.62350  0.25200  0.47880  1.0000
  C   C1        1.0  0.31150  0.52630  0.26490  1.0000
  C   C2        1.0  0.68850  0.02630  0.73510  1.0000
  C   C3        1.0  0.18180  0.47290  0.27730  1.0000
  C   C4        1.0  0.81820  0.97290  0.72270  1.0000
  H   H1        1.0  0.20219  0.43775  0.35255  1.0000
  H   H2        1.0  0.79781  0.93775  0.64745  1.0000
  H   H3        1.0  0.15946  0.42790  0.21162  1.0000
  H   H4        1.0  0.84054  0.92790  0.78838  1.0000
  C   C5        1.0  0.05400  0.53380  0.27630  1.0000
  C   C6        1.0  0.94600  0.03380  0.72370  1.0000
  C   C7        1.0  0.08870  0.61020  0.37140  1.0000
  C   C8        1.0  0.91130  0.11020  0.62860  1.0000
  H   H5        1.0  0.00872  0.65246  0.36274  1.0000
  H   H6        1.0  0.99128  0.15246  0.63726  1.0000
  H   H7        1.0  0.10121  0.58121  0.45070  1.0000
  H   H8        1.0  0.89879  0.08121  0.54930  1.0000
  C   C9        1.0  0.21880  0.66730  0.36660  1.0000
  C   C10       1.0  0.78120  0.16730  0.63340  1.0000
  C   C11       1.0  0.34040  0.60420  0.35960  1.0000
  C   C12       1.0  0.65960  0.10420  0.64040  1.0000
  H   H9        1.0  0.37277  0.57540  0.43831  1.0000
  H   H10       1.0  0.62723  0.07540  0.56169  1.0000
  H   H11       1.0  0.41705  0.64269  0.34326  1.0000
  H   H12       1.0  0.58295  0.14269  0.65674  1.0000
  C   C13       1.0  0.44210  0.46610  0.29710  1.0000
  C   C14       1.0  0.55790  0.96610  0.70290  1.0000
  C   C15       1.0  0.31050  0.56090  0.13730  1.0000
  C   C16       1.0  0.68950  0.06090  0.86270  1.0000
  H   H13       1.0  0.27214  0.51297  0.08007  1.0000
  H   H14       1.0  0.72786  0.01297  0.91993  1.0000
  H   H15       1.0  0.40530  0.57508  0.12979  1.0000
  H   H16       1.0  0.59470  0.07508  0.87021  1.0000
  H   H17       1.0  0.25358  0.61657  0.12150  1.0000
  H   H18       1.0  0.74642  0.11657  0.87850  1.0000
  C   C17       1.0  0.93750  0.47830  0.31430  1.0000
  C   C18       1.0  0.06250  0.97830  0.68570  1.0000
  C   C19       1.0  0.98890  0.57300  0.15240  1.0000
  C   C20       1.0  0.01110  0.07300  0.84760  1.0000
  H   H19       1.0  0.06098  0.60238  0.11829  1.0000
  H   H20       1.0  0.93902  0.10238  0.88171  1.0000
  H   H21       1.0  0.91812  0.61851  0.15999  1.0000
  H   H22       1.0  0.08188  0.11851  0.84001  1.0000
  H   H23       1.0  0.94655  0.52277  0.10056  1.0000
  H   H24       1.0  0.05345  0.02277  0.89944  1.0000
  C   C21       1.0  0.25390  0.72660  0.47950  1.0000
  C   C22       1.0  0.74610  0.22660  0.52050  1.0000
  C   C23       1.0  0.19210  0.74280  0.27070  1.0000
  C   C24       1.0  0.80790  0.24280  0.72930  1.0000
  H   H25       1.0  0.15722  0.71453  0.19304  1.0000
  H   H26       1.0  0.84278  0.21453  0.80696  1.0000
  H   H27       1.0  0.27870  0.77536  0.26960  1.0000
  H   H28       1.0  0.72130  0.27536  0.73040  1.0000
  H   H29       1.0  0.12358  0.78642  0.28842  1.0000
  H   H30       1.0  0.87642  0.28642  0.71158  1.0000
