data_image0
_chemical_formula_structural       Cu2N16C4N4C4N12C4H8
_chemical_formula_sum              "Cu2 N32 C12 H8"
_cell_length_a       11.59
_cell_length_b       10.2064
_cell_length_c       8.269
_cell_angle_alpha    90
_cell_angle_beta     107.1
_cell_angle_gamma    90

_space_group_name_H-M_alt    "P 1"
_space_group_IT_number       1

loop_
  _space_group_symop_operation_xyz
  'x, y, z'

loop_
  _atom_site_type_symbol
  _atom_site_label
  _atom_site_symmetry_multiplicity
  _atom_site_fract_x
  _atom_site_fract_y
  _atom_site_fract_z
  _atom_site_occupancy
  Cu  Cu1       1.0  0.00000  0.50000  0.00000  1.0000
  Cu  Cu2       1.0  0.00000  0.00000  0.50000  1.0000
  N   N1        1.0  0.86762  0.38359  0.23410  1.0000
  N   N2        1.0  0.13238  0.88359  0.26590  1.0000
  N   N3        1.0  0.13238  0.61641  0.76590  1.0000
  N   N4        1.0  0.86762  0.11641  0.73410  1.0000
  N   N5        1.0  0.95662  0.37131  0.15890  1.0000
  N   N6        1.0  0.04338  0.87131  0.34110  1.0000
  N   N7        1.0  0.04338  0.62869  0.84110  1.0000
  N   N8        1.0  0.95662  0.12869  0.65890  1.0000
  N   N9        1.0  0.16427  0.41700  0.07560  1.0000
  N   N10       1.0  0.83573  0.91700  0.42440  1.0000
  N   N11       1.0  0.83573  0.58300  0.92440  1.0000
  N   N12       1.0  0.16427  0.08300  0.57560  1.0000
  N   N13       1.0  0.27041  0.47478  0.08510  1.0000
  N   N14       1.0  0.72959  0.97478  0.41490  1.0000
  N   N15       1.0  0.72959  0.52522  0.91490  1.0000
  N   N16       1.0  0.27041  0.02522  0.58510  1.0000
  C   C1        1.0  0.19155  0.29370  0.12970  1.0000
  C   C2        1.0  0.80845  0.79370  0.37030  1.0000
  C   C3        1.0  0.80845  0.70630  0.87030  1.0000
  C   C4        1.0  0.19155  0.20630  0.62970  1.0000
  N   N17       1.0  0.30986  0.27230  0.17110  1.0000
  N   N18       1.0  0.69014  0.77230  0.32890  1.0000
  N   N19       1.0  0.69014  0.72770  0.82890  1.0000
  N   N20       1.0  0.30986  0.22770  0.67110  1.0000
  C   C5        1.0  0.99998  0.24959  0.19540  1.0000
  C   C6        1.0  0.00002  0.74959  0.30460  1.0000
  C   C7        1.0  0.00002  0.75041  0.80460  1.0000
  C   C8        1.0  0.99998  0.25041  0.69540  1.0000
  N   N21       1.0  0.35655  0.38865  0.14170  1.0000
  N   N22       1.0  0.64345  0.88865  0.35830  1.0000
  N   N23       1.0  0.64345  0.61135  0.85830  1.0000
  N   N24       1.0  0.35655  0.11135  0.64170  1.0000
  N   N25       1.0  0.94119  0.18548  0.28780  1.0000
  N   N26       1.0  0.05881  0.68548  0.21220  1.0000
  N   N27       1.0  0.05881  0.81452  0.71220  1.0000
  N   N28       1.0  0.94119  0.31452  0.78780  1.0000
  N   N29       1.0  0.85886  0.27321  0.30960  1.0000
  N   N30       1.0  0.14114  0.77321  0.19040  1.0000
  N   N31       1.0  0.14114  0.72679  0.69040  1.0000
  N   N32       1.0  0.85886  0.22679  0.80960  1.0000
  C   C9        1.0  0.10133  0.19250  0.14200  1.0000
  C   C10       1.0  0.89867  0.69250  0.35800  1.0000
  C   C11       1.0  0.89867  0.80750  0.85800  1.0000
  C   C12       1.0  0.10133  0.30750  0.64200  1.0000
  H   H1        1.0  0.06850  0.14960  0.03060  1.0000
  H   H2        1.0  0.93150  0.64960  0.46940  1.0000
  H   H3        1.0  0.93150  0.85040  0.96940  1.0000
  H   H4        1.0  0.06850  0.35040  0.53060  1.0000
  H   H5        1.0  0.14220  0.12470  0.22460  1.0000
  H   H6        1.0  0.85780  0.62470  0.27540  1.0000
  H   H7        1.0  0.85780  0.87530  0.77540  1.0000
  H   H8        1.0  0.14220  0.37530  0.72460  1.0000
