data_image0
_chemical_formula_structural       U4O44C4H4C4H4C6H2C2H2C2H2C2H2C4H4C4H4C6H2C2H2C2H2C2H2C4H4C4H4C6H2C2H2C2H2C2H2
_chemical_formula_sum              "U4 O44 C60 H48"
_cell_length_a       11.106
_cell_length_b       13.2861
_cell_length_c       15.3098
_cell_angle_alpha    77.361
_cell_angle_beta     84.741
_cell_angle_gamma    71.863

_space_group_name_H-M_alt    "P 1"
_space_group_IT_number       1

loop_
  _space_group_symop_operation_xyz
  'x, y, z'

loop_
  _atom_site_type_symbol
  _atom_site_label
  _atom_site_symmetry_multiplicity
  _atom_site_fract_x
  _atom_site_fract_y
  _atom_site_fract_z
  _atom_site_occupancy
  U   U1        1.0  0.52498  0.20991  0.54153  1.0000
  U   U2        1.0  0.47502  0.79009  0.45847  1.0000
  U   U3        1.0  0.75016  0.54539  0.11209  1.0000
  U   U4        1.0  0.24984  0.45461  0.88791  1.0000
  O   O1        1.0  0.48430  0.25850  0.64240  1.0000
  O   O2        1.0  0.51570  0.74150  0.35760  1.0000
  O   O3        1.0  0.56090  0.15980  0.44090  1.0000
  O   O4        1.0  0.43910  0.84020  0.55910  1.0000
  O   O5        1.0  0.70750  0.62740  0.19270  1.0000
  O   O6        1.0  0.29250  0.37260  0.80730  1.0000
  O   O7        1.0  0.79230  0.46440  0.03020  1.0000
  O   O8        1.0  0.20770  0.53560  0.96980  1.0000
  O   O9        1.0  0.34710  0.35670  0.45310  1.0000
  O   O10       1.0  0.65290  0.64330  0.54690  1.0000
  O   O11       1.0  0.52680  0.38900  0.46350  1.0000
  O   O12       1.0  0.47320  0.61100  0.53650  1.0000
  O   O13       1.0  0.28160  0.54280  0.31140  1.0000
  O   O14       1.0  0.71840  0.45720  0.68860  1.0000
  O   O15       1.0  0.87730  0.66560  0.03662  1.0000
  O   O16       1.0  0.12270  0.33440  0.96338  1.0000
  O   O17       1.0  0.97880  0.52440  0.13483  1.0000
  O   O18       1.0  0.02120  0.47560  0.86517  1.0000
  O   O19       1.0  0.13540  0.63210  0.17647  1.0000
  O   O20       1.0  0.86460  0.36790  0.82353  1.0000
  O   O21       1.0  0.72890  0.24370  0.53100  1.0000
  O   O22       1.0  0.27110  0.75630  0.46900  1.0000
  O   O23       1.0  0.72850  0.07950  0.59830  1.0000
  O   O24       1.0  0.27150  0.92050  0.40170  1.0000
  O   O25       1.0  0.98910  0.00940  0.60760  1.0000
  O   O26       1.0  0.01090  0.99060  0.39240  1.0000
  O   O27       1.0  0.14080  0.61950  0.78040  1.0000
  O   O28       1.0  0.85920  0.38050  0.21960  1.0000
  O   O29       1.0  0.34570  0.58090  0.79180  1.0000
  O   O30       1.0  0.65430  0.41910  0.20820  1.0000
  O   O31       1.0  0.12770  0.82310  0.67520  1.0000
  O   O32       1.0  0.87230  0.17690  0.32480  1.0000
  O   O33       1.0  0.50330  0.03330  0.63089  1.0000
  O   O34       1.0  0.49670  0.96670  0.36911  1.0000
  O   O35       1.0  0.33650  0.14810  0.55960  1.0000
  O   O36       1.0  0.66350  0.85190  0.44040  1.0000
  O   O37       1.0  0.36000  0.92940  0.74757  1.0000
  O   O38       1.0  0.64000  0.07060  0.25243  1.0000
  O   O39       1.0  0.52870  0.57720  0.08310  1.0000
  O   O40       1.0  0.47130  0.42280  0.91690  1.0000
  O   O41       1.0  0.61830  0.68970  0.99480  1.0000
  O   O42       1.0  0.38170  0.31030  0.00520  1.0000
  O   O43       1.0  0.40070  0.77980  0.88942  1.0000
  O   O44       1.0  0.59930  0.22020  0.11058  1.0000
  C   C1        1.0  0.41620  0.41940  0.43340  1.0000
  C   C2        1.0  0.58380  0.58060  0.56660  1.0000
  C   C3        1.0  0.37480  0.53000  0.37360  1.0000
  C   C4        1.0  0.62520  0.47000  0.62640  1.0000
  H   H1        1.0  0.34170  0.58340  0.41090  1.0000
  H   H2        1.0  0.65830  0.41660  0.58910  1.0000
  H   H3        1.0  0.44850  0.54470  0.34090  1.0000
  H   H4        1.0  0.55150  0.45530  0.65910  1.0000
  C   C5        1.0  0.96720  0.61880  0.08900  1.0000
  C   C6        1.0  0.03280  0.38120  0.91100  1.0000
  C   C7        1.0  0.05670  0.68100  0.10170  1.0000
  C   C8        1.0  0.94330  0.31900  0.89830  1.0000
  H   H5        1.0  0.10980  0.68810  0.04820  1.0000
  H   H6        1.0  0.89020  0.31190  0.95180  1.0000
  H   H7        1.0  0.00670  0.75330  0.10850  1.0000
  H   H8        1.0  0.99330  0.24670  0.89150  1.0000
  C   C9        1.0  0.15600  0.58880  0.33290  1.0000
  C   C10       1.0  0.84400  0.41120  0.66710  1.0000
  C   C11       1.0  0.07550  0.63610  0.25970  1.0000
  C   C12       1.0  0.92450  0.36390  0.74030  1.0000
  C   C13       1.0  0.94790  0.67990  0.27450  1.0000
  C   C14       1.0  0.05210  0.32010  0.72550  1.0000
  H   H9        1.0  0.89440  0.71150  0.22620  1.0000
  H   H10       1.0  0.10560  0.28850  0.77380  1.0000
  C   C15       1.0  0.89830  0.67720  0.36140  1.0000
  C   C16       1.0  0.10170  0.32280  0.63860  1.0000
  H   H11       1.0  0.81160  0.70610  0.37110  1.0000
  H   H12       1.0  0.18840  0.29390  0.62890  1.0000
  C   C17       1.0  0.97690  0.63210  0.43300  1.0000
  C   C18       1.0  0.02310  0.36790  0.56700  1.0000
  H   H13       1.0  0.94350  0.63190  0.49100  1.0000
  H   H14       1.0  0.05650  0.36810  0.50900  1.0000
  C   C19       1.0  0.10630  0.58670  0.41900  1.0000
  C   C20       1.0  0.89370  0.41330  0.58100  1.0000
  H   H15       1.0  0.15920  0.55500  0.46770  1.0000
  H   H16       1.0  0.84080  0.44500  0.53230  1.0000
  C   C21       1.0  0.78810  0.14730  0.56610  1.0000
  C   C22       1.0  0.21190  0.85270  0.43390  1.0000
  C   C23       1.0  0.92930  0.11770  0.56280  1.0000
  C   C24       1.0  0.07070  0.88230  0.43720  1.0000
  H   H17       1.0  0.95840  0.12670  0.50070  1.0000
  H   H18       1.0  0.04160  0.87330  0.49930  1.0000
  H   H19       1.0  0.95500  0.16690  0.59010  1.0000
  H   H20       1.0  0.04500  0.83310  0.40990  1.0000
  C   C25       1.0  0.24240  0.64370  0.75890  1.0000
  C   C26       1.0  0.75760  0.35630  0.24110  1.0000
  C   C27       1.0  0.24730  0.74530  0.69570  1.0000
  C   C28       1.0  0.75270  0.25470  0.30430  1.0000
  H   H21       1.0  0.29900  0.77790  0.72130  1.0000
  H   H22       1.0  0.70100  0.22210  0.27870  1.0000
  H   H23       1.0  0.28900  0.72680  0.64030  1.0000
  H   H24       1.0  0.71100  0.27320  0.35970  1.0000
  C   C29       1.0  0.99320  0.98870  0.69920  1.0000
  C   C30       1.0  0.00680  0.01130  0.30080  1.0000
  C   C31       1.0  0.07430  0.88910  0.73620  1.0000
  C   C32       1.0  0.92570  0.11090  0.26380  1.0000
  C   C33       1.0  0.09470  0.86030  0.82700  1.0000
  C   C34       1.0  0.90530  0.13970  0.17300  1.0000
  H   H25       1.0  0.15170  0.79410  0.85120  1.0000
  H   H26       1.0  0.84830  0.20590  0.14880  1.0000
  C   C35       1.0  0.02950  0.93110  0.88240  1.0000
  C   C36       1.0  0.97050  0.06890  0.11760  1.0000
  H   H27       1.0  0.04250  0.91240  0.94370  1.0000
  H   H28       1.0  0.95750  0.08760  0.05630  1.0000
  C   C37       1.0  0.94520  0.02920  0.84540  1.0000
  C   C38       1.0  0.05480  0.97080  0.15460  1.0000
  H   H29       1.0  0.90000  0.07570  0.88260  1.0000
  H   H30       1.0  0.10000  0.92430  0.11740  1.0000
  C   C39       1.0  0.92680  0.05950  0.75380  1.0000
  C   C40       1.0  0.07320  0.94050  0.24620  1.0000
  H   H31       1.0  0.87100  0.12620  0.72940  1.0000
  H   H32       1.0  0.12900  0.87380  0.27060  1.0000
  C   C41       1.0  0.38500  0.06540  0.61780  1.0000
  C   C42       1.0  0.61500  0.93460  0.38220  1.0000
  C   C43       1.0  0.29660  0.00850  0.67410  1.0000
  C   C44       1.0  0.70340  0.99150  0.32590  1.0000
  H   H33       1.0  0.22620  0.06150  0.69670  1.0000
  H   H34       1.0  0.77380  0.93850  0.30330  1.0000
  H   H35       1.0  0.26260  0.97380  0.63700  1.0000
  H   H36       1.0  0.73740  0.02620  0.36300  1.0000
  C   C45       1.0  0.52330  0.65330  0.01680  1.0000
  C   C46       1.0  0.47670  0.34670  0.98320  1.0000
  C   C47       1.0  0.40410  0.69460  0.96460  1.0000
  C   C48       1.0  0.59590  0.30540  0.03540  1.0000
  H   H37       1.0  0.39150  0.63470  0.94390  1.0000
  H   H38       1.0  0.60850  0.36530  0.05610  1.0000
  H   H39       1.0  0.33350  0.71940  0.00470  1.0000
  H   H40       1.0  0.66650  0.28060  0.99530  1.0000
  C   C49       1.0  0.35480  0.96440  0.82710  1.0000
  C   C50       1.0  0.64520  0.03560  0.17290  1.0000
  C   C51       1.0  0.37390  0.88370  0.90520  1.0000
  C   C52       1.0  0.62610  0.11630  0.09480  1.0000
  C   C53       1.0  0.36570  0.90970  0.98730  1.0000
  C   C54       1.0  0.63430  0.09030  0.01270  1.0000
  H   H41       1.0  0.37710  0.85590  0.03880  1.0000
  H   H42       1.0  0.62290  0.14410  0.96120  1.0000
  C   C55       1.0  0.34020  0.01740  0.99330  1.0000
  C   C56       1.0  0.65980  0.98260  0.00670  1.0000
  H   H43       1.0  0.33320  0.03550  0.04930  1.0000
  H   H44       1.0  0.66680  0.96450  0.95070  1.0000
  C   C57       1.0  0.32520  0.09750  0.91720  1.0000
  C   C58       1.0  0.67480  0.90250  0.08280  1.0000
  H   H45       1.0  0.30990  0.16900  0.92190  1.0000
  H   H46       1.0  0.69010  0.83100  0.07810  1.0000
  C   C59       1.0  0.33280  0.07140  0.83430  1.0000
  C   C60       1.0  0.66720  0.92860  0.16570  1.0000
  H   H47       1.0  0.32330  0.12540  0.78290  1.0000
  H   H48       1.0  0.67670  0.87460  0.21710  1.0000
