data_image0
_chemical_formula_structural       Pr2O2N2O2N2C2H2O6C2O2C4O2C2H2C4O2C4H2C2H2C6H2C2H2O4H8
_chemical_formula_sum              "Pr2 O20 N4 C28 H20"
_cell_length_a       9.5444
_cell_length_b       10.667
_cell_length_c       11.222
_cell_angle_alpha    64.63
_cell_angle_beta     79.5
_cell_angle_gamma    87.5

_space_group_name_H-M_alt    "P 1"
_space_group_IT_number       1

loop_
  _space_group_symop_operation_xyz
  'x, y, z'

loop_
  _atom_site_type_symbol
  _atom_site_label
  _atom_site_symmetry_multiplicity
  _atom_site_fract_x
  _atom_site_fract_y
  _atom_site_fract_z
  _atom_site_occupancy
  Pr  Pr1       1.0  0.19472  0.10741  0.72537  1.0000
  Pr  Pr2       1.0  0.80528  0.89259  0.27463  1.0000
  O   O1        1.0  0.17790  0.14537  0.92701  1.0000
  O   O2        1.0  0.82210  0.85463  0.07299  1.0000
  N   N1        1.0  0.43859  0.13489  0.79437  1.0000
  N   N2        1.0  0.56141  0.86511  0.20563  1.0000
  O   O3        1.0  0.94311  0.15185  0.73503  1.0000
  O   O4        1.0  0.05689  0.84815  0.26497  1.0000
  N   N3        1.0  0.36969  0.25158  0.49260  1.0000
  N   N4        1.0  0.63031  0.74842  0.50740  1.0000
  C   C1        1.0  0.56860  0.11980  0.73500  1.0000
  C   C2        1.0  0.43140  0.88020  0.26500  1.0000
  H   H1        1.0  0.57610  0.09490  0.66420  1.0000
  H   H2        1.0  0.42390  0.90510  0.33580  1.0000
  O   O5        1.0  0.07200  0.88910  0.89507  1.0000
  O   O6        1.0  0.92800  0.11090  0.10493  1.0000
  O   O7        1.0  0.19850  0.35430  0.63801  1.0000
  O   O8        1.0  0.80150  0.64570  0.36199  1.0000
  O   O9        1.0  0.11750  0.05910  0.55080  1.0000
  O   O10       1.0  0.88250  0.94090  0.44920  1.0000
  C   C3        1.0  0.83560  0.12320  0.70050  1.0000
  C   C4        1.0  0.16440  0.87680  0.29950  1.0000
  O   O11       1.0  0.83952  0.08410  0.60974  1.0000
  O   O12       1.0  0.16048  0.91590  0.39026  1.0000
  C   C5        1.0  0.42870  0.16980  0.89743  1.0000
  C   C6        1.0  0.57130  0.83020  0.10257  1.0000
  C   C7        1.0  0.27950  0.18370  0.96340  1.0000
  C   C8        1.0  0.72050  0.81630  0.03660  1.0000
  O   O13       1.0  0.25800  0.57179  0.49073  1.0000
  O   O14       1.0  0.74200  0.42821  0.50927  1.0000
  C   C9        1.0  0.54640  0.19080  0.94210  1.0000
  C   C10       1.0  0.45360  0.80920  0.05790  1.0000
  H   H3        1.0  0.53610  0.21520  0.01330  1.0000
  H   H4        1.0  0.46390  0.78480  0.98670  1.0000
  C   C11       1.0  0.69280  0.13940  0.77310  1.0000
  C   C12       1.0  0.30720  0.86060  0.22690  1.0000
  C   C13       1.0  0.37280  0.38970  0.44790  1.0000
  C   C14       1.0  0.62720  0.61030  0.55210  1.0000
  O   O15       1.0  0.26769  0.22800  0.04880  1.0000
  O   O16       1.0  0.73231  0.77200  0.95120  1.0000
  C   C15       1.0  0.26890  0.44490  0.53100  1.0000
  C   C16       1.0  0.73110  0.55510  0.46900  1.0000
  C   C17       1.0  0.68020  0.17500  0.87960  1.0000
  C   C18       1.0  0.31980  0.82500  0.12040  1.0000
  H   H5        1.0  0.76110  0.18820  0.90880  1.0000
  H   H6        1.0  0.23890  0.81180  0.09120  1.0000
  C   C19       1.0  0.45760  0.19820  0.42060  1.0000
  C   C20       1.0  0.54240  0.80180  0.57940  1.0000
  H   H7        1.0  0.45420  0.10250  0.44940  1.0000
  H   H8        1.0  0.54580  0.89750  0.55060  1.0000
  C   C21       1.0  0.55330  0.27720  0.30590  1.0000
  C   C22       1.0  0.44670  0.72280  0.69410  1.0000
  C   C23       1.0  0.65450  0.20950  0.23390  1.0000
  C   C24       1.0  0.34550  0.79050  0.76610  1.0000
  C   C25       1.0  0.55520  0.42010  0.26160  1.0000
  C   C26       1.0  0.44480  0.57990  0.73840  1.0000
  H   H9        1.0  0.61760  0.47690  0.18450  1.0000
  H   H10       1.0  0.38240  0.52310  0.81550  1.0000
  C   C27       1.0  0.46340  0.47650  0.33340  1.0000
  C   C28       1.0  0.53660  0.52350  0.66660  1.0000
  H   H11       1.0  0.46240  0.57220  0.30510  1.0000
  H   H12       1.0  0.53760  0.42780  0.69490  1.0000
  O   O17       1.0  0.73090  0.28565  0.12655  1.0000
  O   O18       1.0  0.26910  0.71435  0.87345  1.0000
  O   O19       1.0  0.65553  0.07807  0.28965  1.0000
  O   O20       1.0  0.34447  0.92193  0.71035  1.0000
  H   H13       1.0  0.00200  0.87100  0.94600  1.0000
  H   H14       1.0  0.99800  0.12900  0.05400  1.0000
  H   H15       1.0  0.02500  0.06900  0.56400  1.0000
  H   H16       1.0  0.97500  0.93100  0.43600  1.0000
  H   H17       1.0  0.14900  0.03400  0.50100  1.0000
  H   H18       1.0  0.85100  0.96600  0.49900  1.0000
  H   H19       1.0  0.11100  0.82600  0.90400  1.0000
  H   H20       1.0  0.88900  0.17400  0.09600  1.0000
