data_image0
_chemical_formula_structural       Cu6C18H6C12H6C12H6C18H6C6H6C6H6C18H6C12H6C12H6C12O6N6O42
_chemical_formula_sum              "Cu6 C126 H54 O48 N6"
_cell_length_a       22.4258
_cell_length_b       22.4258
_cell_length_c       10.919
_cell_angle_alpha    90
_cell_angle_beta     90
_cell_angle_gamma    120

_space_group_name_H-M_alt    "P 1"
_space_group_IT_number       1

loop_
  _space_group_symop_operation_xyz
  'x, y, z'

loop_
  _atom_site_type_symbol
  _atom_site_label
  _atom_site_symmetry_multiplicity
  _atom_site_fract_x
  _atom_site_fract_y
  _atom_site_fract_z
  _atom_site_occupancy
  Cu  Cu1       1.0  0.33696  0.00000  0.33330  1.0000
  Cu  Cu2       1.0  0.00000  0.33696  0.66663  1.0000
  Cu  Cu3       1.0  0.66304  0.66304  0.99997  1.0000
  Cu  Cu4       1.0  0.33679  0.33679  0.00000  1.0000
  Cu  Cu5       1.0  0.66321  0.00000  0.33333  1.0000
  Cu  Cu6       1.0  0.00000  0.66321  0.66667  1.0000
  C   C1        1.0  0.44270  0.32600  0.07990  1.0000
  C   C2        1.0  0.67400  0.11670  0.41323  1.0000
  C   C3        1.0  0.88330  0.55730  0.74657  1.0000
  C   C4        1.0  0.32600  0.44270  0.92010  1.0000
  C   C5        1.0  0.55730  0.88330  0.25343  1.0000
  C   C6        1.0  0.11670  0.67400  0.58677  1.0000
  C   C7        1.0  0.48080  0.28990  0.12310  1.0000
  C   C8        1.0  0.71010  0.19090  0.45643  1.0000
  C   C9        1.0  0.80910  0.51920  0.78977  1.0000
  C   C10       1.0  0.28990  0.48080  0.87690  1.0000
  C   C11       1.0  0.51920  0.80910  0.21023  1.0000
  C   C12       1.0  0.19090  0.71010  0.54357  1.0000
  C   C13       1.0  0.44410  0.22250  0.16380  1.0000
  C   C14       1.0  0.77750  0.22160  0.49713  1.0000
  C   C15       1.0  0.77840  0.55590  0.83047  1.0000
  C   C16       1.0  0.22250  0.44410  0.83620  1.0000
  C   C17       1.0  0.55590  0.77840  0.16953  1.0000
  C   C18       1.0  0.22160  0.77750  0.50287  1.0000
  H   H1        1.0  0.39620  0.19930  0.16690  1.0000
  H   H2        1.0  0.80070  0.19690  0.50023  1.0000
  H   H3        1.0  0.80310  0.60380  0.83357  1.0000
  H   H4        1.0  0.19930  0.39620  0.83310  1.0000
  H   H5        1.0  0.60380  0.80310  0.16643  1.0000
  H   H6        1.0  0.19690  0.80070  0.49977  1.0000
  C   C19       1.0  0.48160  0.18940  0.20110  1.0000
  C   C20       1.0  0.81060  0.29220  0.53443  1.0000
  C   C21       1.0  0.70780  0.51840  0.86777  1.0000
  C   C22       1.0  0.18940  0.48160  0.79890  1.0000
  C   C23       1.0  0.51840  0.70780  0.13223  1.0000
  C   C24       1.0  0.29220  0.81060  0.46557  1.0000
  C   C25       1.0  0.55050  0.22210  0.18510  1.0000
  C   C26       1.0  0.77790  0.32840  0.51843  1.0000
  C   C27       1.0  0.67160  0.44950  0.85177  1.0000
  C   C28       1.0  0.22210  0.55050  0.81490  1.0000
  C   C29       1.0  0.44950  0.67160  0.14823  1.0000
  C   C30       1.0  0.32840  0.77790  0.48157  1.0000
  H   H7        1.0  0.57410  0.19950  0.20790  1.0000
  H   H8        1.0  0.80050  0.37460  0.54123  1.0000
  H   H9        1.0  0.62540  0.42590  0.87457  1.0000
  H   H10       1.0  0.19950  0.57410  0.79210  1.0000
  H   H11       1.0  0.42590  0.62540  0.12543  1.0000
  H   H12       1.0  0.37460  0.80050  0.45877  1.0000
  C   C31       1.0  0.58590  0.28490  0.13840  1.0000
  C   C32       1.0  0.71510  0.30100  0.47173  1.0000
  C   C33       1.0  0.69900  0.41410  0.80507  1.0000
  C   C34       1.0  0.28490  0.58590  0.86160  1.0000
  C   C35       1.0  0.41410  0.69900  0.19493  1.0000
  C   C36       1.0  0.30100  0.71510  0.52827  1.0000
  C   C37       1.0  0.55150  0.32300  0.11250  1.0000
  C   C38       1.0  0.67700  0.22850  0.44583  1.0000
  C   C39       1.0  0.77150  0.44850  0.77917  1.0000
  C   C40       1.0  0.32300  0.55150  0.88750  1.0000
  C   C41       1.0  0.44850  0.77150  0.22083  1.0000
  C   C42       1.0  0.22850  0.67700  0.55417  1.0000
  H   H13       1.0  0.57630  0.36900  0.08910  1.0000
  H   H14       1.0  0.63100  0.20730  0.42243  1.0000
  H   H15       1.0  0.79270  0.42370  0.75577  1.0000
  H   H16       1.0  0.36900  0.57630  0.91090  1.0000
  H   H17       1.0  0.42370  0.79270  0.24423  1.0000
  H   H18       1.0  0.20730  0.63100  0.57757  1.0000
  C   C43       1.0  0.44080  0.11690  0.24610  1.0000
  C   C44       1.0  0.88310  0.32390  0.57943  1.0000
  C   C45       1.0  0.67610  0.55920  0.91277  1.0000
  C   C46       1.0  0.11690  0.44080  0.75390  1.0000
  C   C47       1.0  0.55920  0.67610  0.08723  1.0000
  C   C48       1.0  0.32390  0.88310  0.42057  1.0000
  C   C49       1.0  0.66290  0.32150  0.11100  1.0000
  C   C50       1.0  0.67850  0.34140  0.44433  1.0000
  C   C51       1.0  0.65860  0.33710  0.77767  1.0000
  C   C52       1.0  0.32150  0.66290  0.88900  1.0000
  C   C53       1.0  0.33710  0.65860  0.22233  1.0000
  C   C54       1.0  0.34140  0.67850  0.55567  1.0000
  C   C55       1.0  0.70690  0.39150  0.11250  1.0000
  C   C56       1.0  0.60850  0.31540  0.44583  1.0000
  C   C57       1.0  0.68460  0.29310  0.77917  1.0000
  C   C58       1.0  0.39150  0.70690  0.88750  1.0000
  C   C59       1.0  0.29310  0.68460  0.22083  1.0000
  C   C60       1.0  0.31540  0.60850  0.55417  1.0000
  H   H19       1.0  0.68830  0.41990  0.12460  1.0000
  H   H20       1.0  0.58010  0.26840  0.45793  1.0000
  H   H21       1.0  0.73160  0.31170  0.79127  1.0000
  H   H22       1.0  0.41990  0.68830  0.87540  1.0000
  H   H23       1.0  0.31170  0.73160  0.20873  1.0000
  H   H24       1.0  0.26840  0.58010  0.54207  1.0000
  C   C61       1.0  0.77150  0.41940  0.09830  1.0000
  C   C62       1.0  0.58060  0.35210  0.43163  1.0000
  C   C63       1.0  0.64790  0.22850  0.76497  1.0000
  C   C64       1.0  0.41940  0.77150  0.90170  1.0000
  C   C65       1.0  0.22850  0.64790  0.23503  1.0000
  C   C66       1.0  0.35210  0.58060  0.56837  1.0000
  H   H25       1.0  0.79880  0.46720  0.09860  1.0000
  H   H26       1.0  0.53280  0.33160  0.43193  1.0000
  H   H27       1.0  0.66840  0.20120  0.76527  1.0000
  H   H28       1.0  0.46720  0.79880  0.90140  1.0000
  H   H29       1.0  0.20120  0.66840  0.23473  1.0000
  H   H30       1.0  0.33160  0.53280  0.56807  1.0000
  C   C67       1.0  0.80190  0.37800  0.08190  1.0000
  C   C68       1.0  0.62200  0.42390  0.41523  1.0000
  C   C69       1.0  0.57610  0.19810  0.74857  1.0000
  C   C70       1.0  0.37800  0.80190  0.91810  1.0000
  C   C71       1.0  0.19810  0.57610  0.25143  1.0000
  C   C72       1.0  0.42390  0.62200  0.58477  1.0000
  H   H31       1.0  0.84930  0.39700  0.07460  1.0000
  H   H32       1.0  0.60300  0.45230  0.40793  1.0000
  H   H33       1.0  0.54770  0.15070  0.74127  1.0000
  H   H34       1.0  0.39700  0.84930  0.92540  1.0000
  H   H35       1.0  0.15070  0.54770  0.25873  1.0000
  H   H36       1.0  0.45230  0.60300  0.59207  1.0000
  C   C73       1.0  0.75760  0.30780  0.07740  1.0000
  C   C74       1.0  0.69220  0.44980  0.41073  1.0000
  C   C75       1.0  0.55020  0.24240  0.74407  1.0000
  C   C76       1.0  0.30780  0.75760  0.92260  1.0000
  C   C77       1.0  0.24240  0.55020  0.25593  1.0000
  C   C78       1.0  0.44980  0.69220  0.58927  1.0000
  C   C79       1.0  0.78250  0.25850  0.05000  1.0000
  C   C80       1.0  0.74150  0.52400  0.38333  1.0000
  C   C81       1.0  0.47600  0.21750  0.71667  1.0000
  C   C82       1.0  0.25850  0.78250  0.95000  1.0000
  C   C83       1.0  0.21750  0.47600  0.28333  1.0000
  C   C84       1.0  0.52400  0.74150  0.61667  1.0000
  C   C85       1.0  0.75380  0.19440  0.10540  1.0000
  C   C86       1.0  0.80560  0.55940  0.43873  1.0000
  C   C87       1.0  0.44060  0.24620  0.77207  1.0000
  C   C88       1.0  0.19440  0.75380  0.89460  1.0000
  C   C89       1.0  0.24620  0.44060  0.22793  1.0000
  C   C90       1.0  0.55940  0.80560  0.56127  1.0000
  H   H37       1.0  0.71870  0.18200  0.16240  1.0000
  H   H38       1.0  0.81800  0.53670  0.49573  1.0000
  H   H39       1.0  0.46330  0.28130  0.82907  1.0000
  H   H40       1.0  0.18200  0.71870  0.83760  1.0000
  H   H41       1.0  0.28130  0.46330  0.17093  1.0000
  H   H42       1.0  0.53670  0.81800  0.50427  1.0000
  C   C91       1.0  0.77660  0.14770  0.07740  1.0000
  C   C92       1.0  0.85230  0.62890  0.41073  1.0000
  C   C93       1.0  0.37110  0.22340  0.74407  1.0000
  C   C94       1.0  0.14770  0.77660  0.92260  1.0000
  C   C95       1.0  0.22340  0.37110  0.25593  1.0000
  C   C96       1.0  0.62890  0.85230  0.58927  1.0000
  C   C97       1.0  0.83400  0.16790  0.00060  1.0000
  C   C98       1.0  0.83210  0.66610  0.33393  1.0000
  C   C99       1.0  0.33390  0.16600  0.66727  1.0000
  C   C100      1.0  0.16790  0.83400  0.99940  1.0000
  C   C101      1.0  0.16600  0.33390  0.33273  1.0000
  C   C102      1.0  0.66610  0.83210  0.66607  1.0000
  H   H43       1.0  0.85370  0.14020  0.99240  1.0000
  H   H44       1.0  0.85980  0.71350  0.32573  1.0000
  H   H45       1.0  0.28650  0.14630  0.65907  1.0000
  H   H46       1.0  0.14020  0.85370  0.00760  1.0000
  H   H47       1.0  0.14630  0.28650  0.34093  1.0000
  H   H48       1.0  0.71350  0.85980  0.67427  1.0000
  C   C103      1.0  0.86030  0.22860  0.93820  1.0000
  C   C104      1.0  0.77140  0.63170  0.27153  1.0000
  C   C105      1.0  0.36830  0.13970  0.60487  1.0000
  C   C106      1.0  0.22860  0.86030  0.06180  1.0000
  C   C107      1.0  0.13970  0.36830  0.39513  1.0000
  C   C108      1.0  0.63170  0.77140  0.72847  1.0000
  C   C109      1.0  0.83630  0.27690  0.96940  1.0000
  C   C110      1.0  0.72310  0.55940  0.30273  1.0000
  C   C111      1.0  0.44060  0.16370  0.63607  1.0000
  C   C112      1.0  0.27690  0.83630  0.03060  1.0000
  C   C113      1.0  0.16370  0.44060  0.36393  1.0000
  C   C114      1.0  0.55940  0.72310  0.69727  1.0000
  H   H49       1.0  0.85770  0.32050  0.93420  1.0000
  H   H50       1.0  0.67950  0.53720  0.26753  1.0000
  H   H51       1.0  0.46280  0.14230  0.60087  1.0000
  H   H52       1.0  0.32050  0.85770  0.06580  1.0000
  H   H53       1.0  0.14230  0.46280  0.39913  1.0000
  H   H54       1.0  0.53720  0.67950  0.73247  1.0000
  C   C115      1.0  0.74820  0.08130  0.14940  1.0000
  C   C116      1.0  0.91870  0.66690  0.48273  1.0000
  C   C117      1.0  0.33310  0.25180  0.81607  1.0000
  C   C118      1.0  0.08130  0.74820  0.85060  1.0000
  C   C119      1.0  0.25180  0.33310  0.18393  1.0000
  C   C120      1.0  0.66690  0.91870  0.51727  1.0000
  C   C121      1.0  0.91940  0.25150  0.85190  1.0000
  C   C122      1.0  0.74850  0.66790  0.18523  1.0000
  C   C123      1.0  0.33210  0.08060  0.51857  1.0000
  C   C124      1.0  0.25150  0.91940  0.14810  1.0000
  C   C125      1.0  0.08060  0.33210  0.48143  1.0000
  C   C126      1.0  0.66790  0.74850  0.81477  1.0000
  O   O1        1.0  0.94930  0.31520  0.81980  1.0000
  O   O2        1.0  0.68480  0.63410  0.15313  1.0000
  O   O3        1.0  0.36590  0.05070  0.48647  1.0000
  O   O4        1.0  0.31520  0.94930  0.18020  1.0000
  O   O5        1.0  0.05070  0.36590  0.51353  1.0000
  O   O6        1.0  0.63410  0.68480  0.84687  1.0000
  N   N1        1.0  0.68930  0.27890  0.09780  1.0000
  N   N2        1.0  0.72110  0.41040  0.43113  1.0000
  N   N3        1.0  0.58960  0.31070  0.76447  1.0000
  N   N4        1.0  0.27890  0.68930  0.90220  1.0000
  N   N5        1.0  0.31070  0.58960  0.23553  1.0000
  N   N6        1.0  0.41040  0.72110  0.56887  1.0000
  O   O7        1.0  0.37590  0.28960  0.08700  1.0000
  O   O8        1.0  0.71040  0.08630  0.42033  1.0000
  O   O9        1.0  0.91370  0.62410  0.75367  1.0000
  O   O10       1.0  0.28960  0.37590  0.91300  1.0000
  O   O11       1.0  0.62410  0.91370  0.24633  1.0000
  O   O12       1.0  0.08630  0.71040  0.57967  1.0000
  O   O13       1.0  0.47230  0.38450  0.04270  1.0000
  O   O14       1.0  0.61550  0.08780  0.37603  1.0000
  O   O15       1.0  0.91220  0.52770  0.70937  1.0000
  O   O16       1.0  0.38450  0.47230  0.95730  1.0000
  O   O17       1.0  0.52770  0.91220  0.29063  1.0000
  O   O18       1.0  0.08780  0.61550  0.62397  1.0000
  O   O19       1.0  0.37600  0.08870  0.24650  1.0000
  O   O20       1.0  0.91130  0.28730  0.57983  1.0000
  O   O21       1.0  0.71270  0.62400  0.91317  1.0000
  O   O22       1.0  0.08870  0.37600  0.75350  1.0000
  O   O23       1.0  0.62400  0.71270  0.08683  1.0000
  O   O24       1.0  0.28730  0.91130  0.42017  1.0000
  O   O25       1.0  0.47140  0.08600  0.28190  1.0000
  O   O26       1.0  0.91400  0.38540  0.61523  1.0000
  O   O27       1.0  0.61460  0.52860  0.94857  1.0000
  O   O28       1.0  0.08600  0.47140  0.71810  1.0000
  O   O29       1.0  0.52860  0.61460  0.05143  1.0000
  O   O30       1.0  0.38540  0.91400  0.38477  1.0000
  O   O31       1.0  0.68700  0.05350  0.18320  1.0000
  O   O32       1.0  0.94650  0.63350  0.51653  1.0000
  O   O33       1.0  0.36650  0.31300  0.84987  1.0000
  O   O34       1.0  0.05350  0.68700  0.81680  1.0000
  O   O35       1.0  0.31300  0.36650  0.15013  1.0000
  O   O36       1.0  0.63350  0.94650  0.48347  1.0000
  O   O37       1.0  0.78670  0.05850  0.18020  1.0000
  O   O38       1.0  0.94150  0.72820  0.51353  1.0000
  O   O39       1.0  0.27180  0.21330  0.84687  1.0000
  O   O40       1.0  0.05850  0.78670  0.81980  1.0000
  O   O41       1.0  0.21330  0.27180  0.15313  1.0000
  O   O42       1.0  0.72820  0.94150  0.48647  1.0000
  O   O43       1.0  0.93520  0.20840  0.81820  1.0000
  O   O44       1.0  0.79160  0.72680  0.15153  1.0000
  O   O45       1.0  0.27320  0.06480  0.48487  1.0000
  O   O46       1.0  0.20840  0.93520  0.18180  1.0000
  O   O47       1.0  0.06480  0.27320  0.51513  1.0000
  O   O48       1.0  0.72680  0.79160  0.84847  1.0000
