data_image0
_chemical_formula_structural       U2O16C4H2C2H2C4H2C2H2C2H4C4H4C6H2C2H2C2H4C2
_chemical_formula_sum              "U2 O16 C30 H24"
_cell_length_a       10.2002
_cell_length_b       10.7472
_cell_length_c       13.1019
_cell_angle_alpha    103.25
_cell_angle_beta     99.8555
_cell_angle_gamma    116.221

_space_group_name_H-M_alt    "P 1"
_space_group_IT_number       1

loop_
  _space_group_symop_operation_xyz
  'x, y, z'

loop_
  _atom_site_type_symbol
  _atom_site_label
  _atom_site_symmetry_multiplicity
  _atom_site_fract_x
  _atom_site_fract_y
  _atom_site_fract_z
  _atom_site_occupancy
  U   U1        1.0  0.38031  0.84519  0.72930  1.0000
  U   U2        1.0  0.61969  0.15481  0.27070  1.0000
  O   O1        1.0  0.30202  0.85894  0.60282  1.0000
  O   O2        1.0  0.69798  0.14106  0.39718  1.0000
  O   O3        1.0  0.46204  0.82994  0.85406  1.0000
  O   O4        1.0  0.53796  0.17006  0.14594  1.0000
  O   O5        1.0  0.62927  0.04156  0.73902  1.0000
  O   O6        1.0  0.37073  0.95844  0.26098  1.0000
  O   O7        1.0  0.58130  0.81702  0.65532  1.0000
  O   O8        1.0  0.41870  0.18298  0.34468  1.0000
  O   O9        1.0  0.71158  0.41793  0.37267  1.0000
  O   O10       1.0  0.28842  0.58207  0.62733  1.0000
  O   O11       1.0  0.86706  0.36862  0.29774  1.0000
  O   O12       1.0  0.13294  0.63138  0.70226  1.0000
  O   O13       1.0  0.20715  0.90180  0.81570  1.0000
  O   O14       1.0  0.79285  0.09820  0.18430  1.0000
  O   O15       1.0  0.42552  0.09043  0.83067  1.0000
  O   O16       1.0  0.57448  0.90957  0.16933  1.0000
  C   C1        1.0  0.82370  0.91910  0.55995  1.0000
  C   C2        1.0  0.17630  0.08090  0.44005  1.0000
  C   C3        1.0  0.90310  0.86700  0.61823  1.0000
  C   C4        1.0  0.09690  0.13300  0.38177  1.0000
  H   H1        1.0  0.92789  0.89688  0.69630  1.0000
  H   H2        1.0  0.07211  0.10312  0.30370  1.0000
  C   C5        1.0  0.94660  0.77210  0.56376  1.0000
  C   C6        1.0  0.05340  0.22790  0.43624  1.0000
  H   H3        1.0  0.00034  0.73733  0.60480  1.0000
  H   H4        1.0  0.99966  0.26267  0.39520  1.0000
  C   C7        1.0  0.91220  0.72730  0.44950  1.0000
  C   C8        1.0  0.08780  0.27270  0.55050  1.0000
  C   C9        1.0  0.83530  0.78140  0.39099  1.0000
  C   C10       1.0  0.16470  0.21860  0.60901  1.0000
  H   H5        1.0  0.81312  0.75347  0.31313  1.0000
  H   H6        1.0  0.18688  0.24653  0.68687  1.0000
  C   C11       1.0  0.79080  0.87610  0.44568  1.0000
  C   C12       1.0  0.20920  0.12390  0.55432  1.0000
  H   H7        1.0  0.73763  0.91161  0.40482  1.0000
  H   H8        1.0  0.26237  0.08839  0.59518  1.0000
  C   C13       1.0  0.77840  0.02230  0.62089  1.0000
  C   C14       1.0  0.22160  0.97770  0.37911  1.0000
  H   H9        1.0  0.73920  0.06045  0.56844  1.0000
  H   H10       1.0  0.26080  0.93955  0.43156  1.0000
  H   H11       1.0  0.87165  0.10766  0.67832  1.0000
  H   H12       1.0  0.12835  0.89234  0.32168  1.0000
  C   C15       1.0  0.65830  0.95570  0.67525  1.0000
  C   C16       1.0  0.34170  0.04430  0.32475  1.0000
  C   C17       1.0  0.95880  0.62340  0.39190  1.0000
  C   C18       1.0  0.04120  0.37660  0.60810  1.0000
  H   H13       1.0  0.05276  0.63899  0.44282  1.0000
  H   H14       1.0  0.94724  0.36101  0.55718  1.0000
  H   H15       1.0  0.98538  0.64886  0.32745  1.0000
  H   H16       1.0  0.01462  0.35114  0.67255  1.0000
  C   C19       1.0  0.83840  0.46200  0.35271  1.0000
  C   C20       1.0  0.16160  0.53800  0.64729  1.0000
  C   C21       1.0  0.13080  0.07080  0.96692  1.0000
  C   C22       1.0  0.86920  0.92920  0.03308  1.0000
  C   C23       1.0  0.99890  0.07920  0.93020  1.0000
  C   C24       1.0  0.00110  0.92080  0.06980  1.0000
  H   H17       1.0  0.99713  0.13311  0.88226  1.0000
  H   H18       1.0  0.00287  0.86689  0.11774  1.0000
  C   C25       1.0  0.87000  0.00970  0.96282  1.0000
  C   C26       1.0  0.13000  0.99030  0.03718  1.0000
  H   H19       1.0  0.78171  0.01709  0.93709  1.0000
  H   H20       1.0  0.21829  0.98291  0.06291  1.0000
  C   C27       1.0  0.27000  0.14430  0.93072  1.0000
  C   C28       1.0  0.73000  0.85570  0.06928  1.0000
  H   H21       1.0  0.36144  0.20745  0.99719  1.0000
  H   H22       1.0  0.63856  0.79255  0.00281  1.0000
  H   H23       1.0  0.25644  0.20970  0.89291  1.0000
  H   H24       1.0  0.74356  0.79030  0.10709  1.0000
  C   C29       1.0  0.30120  0.03900  0.85445  1.0000
  C   C30       1.0  0.69880  0.96100  0.14555  1.0000
