data_image0
_chemical_formula_structural       Er4O24C4H4C4H4O8C8H8
_chemical_formula_sum              "Er4 O32 C16 H16"
_cell_length_a       6.6539
_cell_length_b       18.3606
_cell_length_c       8.433
_cell_angle_alpha    90
_cell_angle_beta     90
_cell_angle_gamma    90

_space_group_name_H-M_alt    "P 1"
_space_group_IT_number       1

loop_
  _space_group_symop_operation_xyz
  'x, y, z'

loop_
  _atom_site_type_symbol
  _atom_site_label
  _atom_site_symmetry_multiplicity
  _atom_site_fract_x
  _atom_site_fract_y
  _atom_site_fract_z
  _atom_site_occupancy
  Er  Er1       1.0  0.00000  0.35727  0.25000  1.0000
  Er  Er2       1.0  0.00000  0.64273  0.75000  1.0000
  Er  Er3       1.0  0.50000  0.85727  0.25000  1.0000
  Er  Er4       1.0  0.50000  0.14273  0.75000  1.0000
  O   O1        1.0  0.01190  0.45009  0.06960  1.0000
  O   O2        1.0  0.98810  0.54991  0.56960  1.0000
  O   O3        1.0  0.98810  0.45009  0.43040  1.0000
  O   O4        1.0  0.01190  0.54991  0.93040  1.0000
  O   O5        1.0  0.51190  0.95009  0.06960  1.0000
  O   O6        1.0  0.48810  0.04991  0.56960  1.0000
  O   O7        1.0  0.48810  0.95009  0.43040  1.0000
  O   O8        1.0  0.51190  0.04991  0.93040  1.0000
  O   O9        1.0  0.33540  0.40574  0.27090  1.0000
  O   O10       1.0  0.66460  0.59426  0.77090  1.0000
  O   O11       1.0  0.66460  0.40574  0.22910  1.0000
  O   O12       1.0  0.33540  0.59426  0.72910  1.0000
  O   O13       1.0  0.83540  0.90574  0.27090  1.0000
  O   O14       1.0  0.16460  0.09426  0.77090  1.0000
  O   O15       1.0  0.16460  0.90574  0.22910  1.0000
  O   O16       1.0  0.83540  0.09426  0.72910  1.0000
  O   O17       1.0  0.32540  0.18343  0.51860  1.0000
  O   O18       1.0  0.67460  0.81657  0.01860  1.0000
  O   O19       1.0  0.67460  0.18343  0.98140  1.0000
  O   O20       1.0  0.32540  0.81657  0.48140  1.0000
  O   O21       1.0  0.82540  0.68343  0.51860  1.0000
  O   O22       1.0  0.17460  0.31657  0.01860  1.0000
  O   O23       1.0  0.17460  0.68343  0.98140  1.0000
  O   O24       1.0  0.82540  0.31657  0.48140  1.0000
  C   C1        1.0  0.92570  0.50000  0.00000  1.0000
  C   C2        1.0  0.07430  0.50000  0.50000  1.0000
  C   C3        1.0  0.42570  0.00000  0.00000  1.0000
  C   C4        1.0  0.57430  0.00000  0.50000  1.0000
  H   H1        1.0  0.78600  0.50000  0.00000  1.0000
  H   H2        1.0  0.21400  0.50000  0.50000  1.0000
  H   H3        1.0  0.28600  0.00000  0.00000  1.0000
  H   H4        1.0  0.71400  0.00000  0.50000  1.0000
  C   C5        1.0  0.50000  0.37420  0.25000  1.0000
  C   C6        1.0  0.50000  0.62580  0.75000  1.0000
  C   C7        1.0  0.00000  0.87420  0.25000  1.0000
  C   C8        1.0  0.00000  0.12580  0.75000  1.0000
  H   H5        1.0  0.50000  0.32360  0.25000  1.0000
  H   H6        1.0  0.50000  0.67640  0.75000  1.0000
  H   H7        1.0  0.00000  0.82360  0.25000  1.0000
  H   H8        1.0  0.00000  0.17640  0.75000  1.0000
  O   O25       1.0  0.17970  0.25820  0.34700  1.0000
  O   O26       1.0  0.82030  0.74180  0.84700  1.0000
  O   O27       1.0  0.82030  0.25820  0.15300  1.0000
  O   O28       1.0  0.17970  0.74180  0.65300  1.0000
  O   O29       1.0  0.67970  0.75820  0.34700  1.0000
  O   O30       1.0  0.32030  0.24180  0.84700  1.0000
  O   O31       1.0  0.32030  0.75820  0.15300  1.0000
  O   O32       1.0  0.67970  0.24180  0.65300  1.0000
  C   C9        1.0  0.26400  0.24350  0.47550  1.0000
  C   C10       1.0  0.73600  0.75650  0.97550  1.0000
  C   C11       1.0  0.73600  0.24350  0.02450  1.0000
  C   C12       1.0  0.26400  0.75650  0.52450  1.0000
  C   C13       1.0  0.76400  0.74350  0.47550  1.0000
  C   C14       1.0  0.23600  0.25650  0.97550  1.0000
  C   C15       1.0  0.23600  0.74350  0.02450  1.0000
  C   C16       1.0  0.76400  0.25650  0.52450  1.0000
  H   H9        1.0  0.28220  0.28190  0.54590  1.0000
  H   H10       1.0  0.71780  0.71810  0.04590  1.0000
  H   H11       1.0  0.71780  0.28190  0.95410  1.0000
  H   H12       1.0  0.28220  0.71810  0.45410  1.0000
  H   H13       1.0  0.78220  0.78190  0.54590  1.0000
  H   H14       1.0  0.21780  0.21810  0.04590  1.0000
  H   H15       1.0  0.21780  0.78190  0.95410  1.0000
  H   H16       1.0  0.78220  0.21810  0.45410  1.0000
