data_image0
_chemical_formula_structural       Er2O16C2H2C2H2C2H2C2H2
_chemical_formula_sum              "Er2 O16 C8 H8"
_cell_length_a       6.6243
_cell_length_b       8.6345
_cell_length_c       9.7545
_cell_angle_alpha    90
_cell_angle_beta     102.599
_cell_angle_gamma    90

_space_group_name_H-M_alt    "P 1"
_space_group_IT_number       1

loop_
  _space_group_symop_operation_xyz
  'x, y, z'

loop_
  _atom_site_type_symbol
  _atom_site_label
  _atom_site_symmetry_multiplicity
  _atom_site_fract_x
  _atom_site_fract_y
  _atom_site_fract_z
  _atom_site_occupancy
  Er  Er1       1.0  0.89118  0.76915  0.73054  1.0000
  Er  Er2       1.0  0.10882  0.26915  0.26946  1.0000
  O   O1        1.0  0.92550  0.54330  0.87140  1.0000
  O   O2        1.0  0.07450  0.04330  0.12860  1.0000
  O   O3        1.0  0.00180  0.38130  0.05300  1.0000
  O   O4        1.0  0.99820  0.88130  0.94700  1.0000
  O   O5        1.0  0.87700  0.58850  0.56140  1.0000
  O   O6        1.0  0.12300  0.08850  0.43860  1.0000
  O   O7        1.0  0.94280  0.43460  0.39750  1.0000
  O   O8        1.0  0.05720  0.93460  0.60250  1.0000
  O   O9        1.0  0.57250  0.69370  0.76640  1.0000
  O   O10       1.0  0.42750  0.19370  0.23360  1.0000
  O   O11       1.0  0.24530  0.70410  0.78520  1.0000
  O   O12       1.0  0.75470  0.20410  0.21480  1.0000
  O   O13       1.0  0.62010  0.87170  0.51950  1.0000
  O   O14       1.0  0.37990  0.37170  0.48050  1.0000
  O   O15       1.0  0.70360  0.01500  0.70890  1.0000
  O   O16       1.0  0.29640  0.51500  0.29110  1.0000
  C   C1        1.0  0.02720  0.50160  0.99110  1.0000
  C   C2        1.0  0.97280  0.00160  0.00890  1.0000
  H   H1        1.0  0.13070  0.56810  0.03660  1.0000
  H   H2        1.0  0.86930  0.06810  0.96340  1.0000
  C   C3        1.0  0.95440  0.47150  0.52250  1.0000
  C   C4        1.0  0.04560  0.97150  0.47750  1.0000
  H   H3        1.0  0.02710  0.40580  0.59150  1.0000
  H   H4        1.0  0.97290  0.90580  0.40850  1.0000
  C   C5        1.0  0.38840  0.71930  0.73080  1.0000
  C   C6        1.0  0.61160  0.21930  0.26920  1.0000
  H   H5        1.0  0.35040  0.76010  0.64060  1.0000
  H   H6        1.0  0.64960  0.26010  0.35940  1.0000
  C   C7        1.0  0.60330  0.99320  0.58510  1.0000
  C   C8        1.0  0.39670  0.49320  0.41490  1.0000
  H   H7        1.0  0.51380  0.07020  0.54120  1.0000
  H   H8        1.0  0.48620  0.57020  0.45880  1.0000
