data_image0
_chemical_formula_structural       Ti16O112N32C32H16C16H16C16H16C64H16C16H16C16H16C16H16C32
_chemical_formula_sum              "Ti16 O112 N32 C208 H112"
_cell_length_a       42.164
_cell_length_b       20.815
_cell_length_c       7.478
_cell_angle_alpha    90
_cell_angle_beta     90
_cell_angle_gamma    90

_space_group_name_H-M_alt    "P 1"
_space_group_IT_number       1

loop_
  _space_group_symop_operation_xyz
  'x, y, z'

loop_
  _atom_site_type_symbol
  _atom_site_label
  _atom_site_symmetry_multiplicity
  _atom_site_fract_x
  _atom_site_fract_y
  _atom_site_fract_z
  _atom_site_occupancy
  Ti  Ti1       1.0  0.99989  0.24827  0.24990  1.0000
  Ti  Ti2       1.0  0.00011  0.75173  0.24990  1.0000
  Ti  Ti3       1.0  0.25011  0.49827  0.49990  1.0000
  Ti  Ti4       1.0  0.74989  0.50173  0.49990  1.0000
  Ti  Ti5       1.0  0.99989  0.74827  0.74990  1.0000
  Ti  Ti6       1.0  0.00011  0.25173  0.74990  1.0000
  Ti  Ti7       1.0  0.25011  0.99827  0.99990  1.0000
  Ti  Ti8       1.0  0.74989  0.00173  0.99990  1.0000
  Ti  Ti9       1.0  0.49989  0.24827  0.74990  1.0000
  Ti  Ti10      1.0  0.50011  0.75173  0.74990  1.0000
  Ti  Ti11      1.0  0.75011  0.49827  0.99990  1.0000
  Ti  Ti12      1.0  0.24989  0.50173  0.99990  1.0000
  Ti  Ti13      1.0  0.49989  0.74827  0.24990  1.0000
  Ti  Ti14      1.0  0.50011  0.25173  0.24990  1.0000
  Ti  Ti15      1.0  0.75011  0.99827  0.49990  1.0000
  Ti  Ti16      1.0  0.24989  0.00173  0.49990  1.0000
  O   O1        1.0  0.99750  0.26200  0.52540  1.0000
  O   O2        1.0  0.00250  0.73800  0.52540  1.0000
  O   O3        1.0  0.25250  0.51200  0.77540  1.0000
  O   O4        1.0  0.74750  0.48800  0.77540  1.0000
  O   O5        1.0  0.99750  0.76200  0.02540  1.0000
  O   O6        1.0  0.00250  0.23800  0.02540  1.0000
  O   O7        1.0  0.25250  0.01200  0.27540  1.0000
  O   O8        1.0  0.74750  0.98800  0.27540  1.0000
  O   O9        1.0  0.49750  0.26200  0.02540  1.0000
  O   O10       1.0  0.50250  0.73800  0.02540  1.0000
  O   O11       1.0  0.75250  0.51200  0.27540  1.0000
  O   O12       1.0  0.24750  0.48800  0.27540  1.0000
  O   O13       1.0  0.49750  0.76200  0.52540  1.0000
  O   O14       1.0  0.50250  0.23800  0.52540  1.0000
  O   O15       1.0  0.75250  0.01200  0.77540  1.0000
  O   O16       1.0  0.24750  0.98800  0.77540  1.0000
  O   O17       1.0  0.00608  0.34950  0.23030  1.0000
  O   O18       1.0  0.99392  0.65050  0.23030  1.0000
  O   O19       1.0  0.24392  0.59950  0.48030  1.0000
  O   O20       1.0  0.75608  0.40050  0.48030  1.0000
  O   O21       1.0  0.00608  0.84950  0.73030  1.0000
  O   O22       1.0  0.99392  0.15050  0.73030  1.0000
  O   O23       1.0  0.24392  0.09950  0.98030  1.0000
  O   O24       1.0  0.75608  0.90050  0.98030  1.0000
  O   O25       1.0  0.50608  0.34950  0.73030  1.0000
  O   O26       1.0  0.49392  0.65050  0.73030  1.0000
  O   O27       1.0  0.74392  0.59950  0.98030  1.0000
  O   O28       1.0  0.25608  0.40050  0.98030  1.0000
  O   O29       1.0  0.50608  0.84950  0.23030  1.0000
  O   O30       1.0  0.49392  0.15050  0.23030  1.0000
  O   O31       1.0  0.74392  0.09950  0.48030  1.0000
  O   O32       1.0  0.25608  0.90050  0.48030  1.0000
  O   O33       1.0  0.03494  0.43600  0.28040  1.0000
  O   O34       1.0  0.96506  0.56400  0.28040  1.0000
  O   O35       1.0  0.21506  0.68600  0.53040  1.0000
  O   O36       1.0  0.78494  0.31400  0.53040  1.0000
  O   O37       1.0  0.03494  0.93600  0.78040  1.0000
  O   O38       1.0  0.96506  0.06400  0.78040  1.0000
  O   O39       1.0  0.21506  0.18600  0.03040  1.0000
  O   O40       1.0  0.78494  0.81400  0.03040  1.0000
  O   O41       1.0  0.53494  0.43600  0.78040  1.0000
  O   O42       1.0  0.46506  0.56400  0.78040  1.0000
  O   O43       1.0  0.71506  0.68600  0.03040  1.0000
  O   O44       1.0  0.28494  0.31400  0.03040  1.0000
  O   O45       1.0  0.53494  0.93600  0.28040  1.0000
  O   O46       1.0  0.46506  0.06400  0.28040  1.0000
  O   O47       1.0  0.71506  0.18600  0.53040  1.0000
  O   O48       1.0  0.28494  0.81400  0.53040  1.0000
  O   O49       1.0  0.02460  0.16260  0.30120  1.0000
  O   O50       1.0  0.97540  0.83740  0.30120  1.0000
  O   O51       1.0  0.22540  0.41260  0.55120  1.0000
  O   O52       1.0  0.77460  0.58740  0.55120  1.0000
  O   O53       1.0  0.02460  0.66260  0.80120  1.0000
  O   O54       1.0  0.97540  0.33740  0.80120  1.0000
  O   O55       1.0  0.22540  0.91260  0.05120  1.0000
  O   O56       1.0  0.77460  0.08740  0.05120  1.0000
  O   O57       1.0  0.52460  0.16260  0.80120  1.0000
  O   O58       1.0  0.47540  0.83740  0.80120  1.0000
  O   O59       1.0  0.72540  0.41260  0.05120  1.0000
  O   O60       1.0  0.27460  0.58740  0.05120  1.0000
  O   O61       1.0  0.52460  0.66260  0.30120  1.0000
  O   O62       1.0  0.47540  0.33740  0.30120  1.0000
  O   O63       1.0  0.72540  0.91260  0.55120  1.0000
  O   O64       1.0  0.27460  0.08740  0.55120  1.0000
  O   O65       1.0  0.07260  0.11360  0.34230  1.0000
  O   O66       1.0  0.92740  0.88640  0.34230  1.0000
  O   O67       1.0  0.17740  0.36360  0.59230  1.0000
  O   O68       1.0  0.82260  0.63640  0.59230  1.0000
  O   O69       1.0  0.07260  0.61360  0.84230  1.0000
  O   O70       1.0  0.92740  0.38640  0.84230  1.0000
  O   O71       1.0  0.17740  0.86360  0.09230  1.0000
  O   O72       1.0  0.82260  0.13640  0.09230  1.0000
  O   O73       1.0  0.57260  0.11360  0.84230  1.0000
  O   O74       1.0  0.42740  0.88640  0.84230  1.0000
  O   O75       1.0  0.67740  0.36360  0.09230  1.0000
  O   O76       1.0  0.32260  0.63640  0.09230  1.0000
  O   O77       1.0  0.57260  0.61360  0.34230  1.0000
  O   O78       1.0  0.42740  0.38640  0.34230  1.0000
  O   O79       1.0  0.67740  0.86360  0.59230  1.0000
  O   O80       1.0  0.32260  0.13640  0.59230  1.0000
  O   O81       1.0  0.95487  0.29080  0.24700  1.0000
  O   O82       1.0  0.04513  0.70920  0.24700  1.0000
  O   O83       1.0  0.29513  0.54080  0.49700  1.0000
  O   O84       1.0  0.70487  0.45920  0.49700  1.0000
  O   O85       1.0  0.95487  0.79080  0.74700  1.0000
  O   O86       1.0  0.04513  0.20920  0.74700  1.0000
  O   O87       1.0  0.29513  0.04080  0.99700  1.0000
  O   O88       1.0  0.70487  0.95920  0.99700  1.0000
  O   O89       1.0  0.45487  0.29080  0.74700  1.0000
  O   O90       1.0  0.54513  0.70920  0.74700  1.0000
  O   O91       1.0  0.79513  0.54080  0.99700  1.0000
  O   O92       1.0  0.20487  0.45920  0.99700  1.0000
  O   O93       1.0  0.45487  0.79080  0.24700  1.0000
  O   O94       1.0  0.54513  0.20920  0.24700  1.0000
  O   O95       1.0  0.79513  0.04080  0.49700  1.0000
  O   O96       1.0  0.20487  0.95920  0.49700  1.0000
  O   O97       1.0  0.90363  0.28820  0.32060  1.0000
  O   O98       1.0  0.09637  0.71180  0.32060  1.0000
  O   O99       1.0  0.34637  0.53820  0.57060  1.0000
  O   O100      1.0  0.65363  0.46180  0.57060  1.0000
  O   O101      1.0  0.90363  0.78820  0.82060  1.0000
  O   O102      1.0  0.09637  0.21180  0.82060  1.0000
  O   O103      1.0  0.34637  0.03820  0.07060  1.0000
  O   O104      1.0  0.65363  0.96180  0.07060  1.0000
  O   O105      1.0  0.40363  0.28820  0.82060  1.0000
  O   O106      1.0  0.59637  0.71180  0.82060  1.0000
  O   O107      1.0  0.84637  0.53820  0.07060  1.0000
  O   O108      1.0  0.15363  0.46180  0.07060  1.0000
  O   O109      1.0  0.40363  0.78820  0.32060  1.0000
  O   O110      1.0  0.59637  0.21180  0.32060  1.0000
  O   O111      1.0  0.84637  0.03820  0.57060  1.0000
  O   O112      1.0  0.15363  0.96180  0.57060  1.0000
  N   N1        1.0  0.05104  0.27460  0.29540  1.0000
  N   N2        1.0  0.94896  0.72540  0.29540  1.0000
  N   N3        1.0  0.19896  0.52460  0.54540  1.0000
  N   N4        1.0  0.80104  0.47540  0.54540  1.0000
  N   N5        1.0  0.05104  0.77460  0.79540  1.0000
  N   N6        1.0  0.94896  0.22540  0.79540  1.0000
  N   N7        1.0  0.19896  0.02460  0.04540  1.0000
  N   N8        1.0  0.80104  0.97540  0.04540  1.0000
  N   N9        1.0  0.55104  0.27460  0.79540  1.0000
  N   N10       1.0  0.44896  0.72540  0.79540  1.0000
  N   N11       1.0  0.69896  0.52460  0.04540  1.0000
  N   N12       1.0  0.30104  0.47540  0.04540  1.0000
  N   N13       1.0  0.55104  0.77460  0.29540  1.0000
  N   N14       1.0  0.44896  0.22540  0.29540  1.0000
  N   N15       1.0  0.69896  0.02460  0.54540  1.0000
  N   N16       1.0  0.30104  0.97540  0.54540  1.0000
  N   N17       1.0  0.96282  0.16910  0.29470  1.0000
  N   N18       1.0  0.03718  0.83090  0.29470  1.0000
  N   N19       1.0  0.28718  0.41910  0.54470  1.0000
  N   N20       1.0  0.71282  0.58090  0.54470  1.0000
  N   N21       1.0  0.96282  0.66910  0.79470  1.0000
  N   N22       1.0  0.03718  0.33090  0.79470  1.0000
  N   N23       1.0  0.28718  0.91910  0.04470  1.0000
  N   N24       1.0  0.71282  0.08090  0.04470  1.0000
  N   N25       1.0  0.46282  0.16910  0.79470  1.0000
  N   N26       1.0  0.53718  0.83090  0.79470  1.0000
  N   N27       1.0  0.78718  0.41910  0.04470  1.0000
  N   N28       1.0  0.21282  0.58090  0.04470  1.0000
  N   N29       1.0  0.46282  0.66910  0.29470  1.0000
  N   N30       1.0  0.53718  0.33090  0.29470  1.0000
  N   N31       1.0  0.78718  0.91910  0.54470  1.0000
  N   N32       1.0  0.21282  0.08090  0.54470  1.0000
  C   C1        1.0  0.05900  0.33390  0.30810  1.0000
  C   C2        1.0  0.94100  0.66610  0.30810  1.0000
  C   C3        1.0  0.19100  0.58390  0.55810  1.0000
  C   C4        1.0  0.80900  0.41610  0.55810  1.0000
  C   C5        1.0  0.05900  0.83390  0.80810  1.0000
  C   C6        1.0  0.94100  0.16610  0.80810  1.0000
  C   C7        1.0  0.19100  0.08390  0.05810  1.0000
  C   C8        1.0  0.80900  0.91610  0.05810  1.0000
  C   C9        1.0  0.55900  0.33390  0.80810  1.0000
  C   C10       1.0  0.44100  0.66610  0.80810  1.0000
  C   C11       1.0  0.69100  0.58390  0.05810  1.0000
  C   C12       1.0  0.30900  0.41610  0.05810  1.0000
  C   C13       1.0  0.55900  0.83390  0.30810  1.0000
  C   C14       1.0  0.44100  0.16610  0.30810  1.0000
  C   C15       1.0  0.69100  0.08390  0.55810  1.0000
  C   C16       1.0  0.30900  0.91610  0.55810  1.0000
  C   C17       1.0  0.08990  0.35180  0.34940  1.0000
  C   C18       1.0  0.91010  0.64820  0.34940  1.0000
  C   C19       1.0  0.16010  0.60180  0.59940  1.0000
  C   C20       1.0  0.83990  0.39820  0.59940  1.0000
  C   C21       1.0  0.08990  0.85180  0.84940  1.0000
  C   C22       1.0  0.91010  0.14820  0.84940  1.0000
  C   C23       1.0  0.16010  0.10180  0.09940  1.0000
  C   C24       1.0  0.83990  0.89820  0.09940  1.0000
  C   C25       1.0  0.58990  0.35180  0.84940  1.0000
  C   C26       1.0  0.41010  0.64820  0.84940  1.0000
  C   C27       1.0  0.66010  0.60180  0.09940  1.0000
  C   C28       1.0  0.33990  0.39820  0.09940  1.0000
  C   C29       1.0  0.58990  0.85180  0.34940  1.0000
  C   C30       1.0  0.41010  0.14820  0.34940  1.0000
  C   C31       1.0  0.66010  0.10180  0.59940  1.0000
  C   C32       1.0  0.33990  0.89820  0.59940  1.0000
  H   H1        1.0  0.09520  0.39490  0.36220  1.0000
  H   H2        1.0  0.90480  0.60510  0.36220  1.0000
  H   H3        1.0  0.15480  0.64490  0.61220  1.0000
  H   H4        1.0  0.84520  0.35510  0.61220  1.0000
  H   H5        1.0  0.09520  0.89490  0.86220  1.0000
  H   H6        1.0  0.90480  0.10510  0.86220  1.0000
  H   H7        1.0  0.15480  0.14490  0.11220  1.0000
  H   H8        1.0  0.84520  0.85510  0.11220  1.0000
  H   H9        1.0  0.59520  0.39490  0.86220  1.0000
  H   H10       1.0  0.40480  0.60510  0.86220  1.0000
  H   H11       1.0  0.65480  0.64490  0.11220  1.0000
  H   H12       1.0  0.34520  0.35510  0.11220  1.0000
  H   H13       1.0  0.59520  0.89490  0.36220  1.0000
  H   H14       1.0  0.40480  0.10510  0.36220  1.0000
  H   H15       1.0  0.65480  0.14490  0.61220  1.0000
  H   H16       1.0  0.34520  0.85510  0.61220  1.0000
  C   C33       1.0  0.11220  0.30550  0.37080  1.0000
  C   C34       1.0  0.88780  0.69450  0.37080  1.0000
  C   C35       1.0  0.13780  0.55550  0.62080  1.0000
  C   C36       1.0  0.86220  0.44450  0.62080  1.0000
  C   C37       1.0  0.11220  0.80550  0.87080  1.0000
  C   C38       1.0  0.88780  0.19450  0.87080  1.0000
  C   C39       1.0  0.13780  0.05550  0.12080  1.0000
  C   C40       1.0  0.86220  0.94450  0.12080  1.0000
  C   C41       1.0  0.61220  0.30550  0.87080  1.0000
  C   C42       1.0  0.38780  0.69450  0.87080  1.0000
  C   C43       1.0  0.63780  0.55550  0.12080  1.0000
  C   C44       1.0  0.36220  0.44450  0.12080  1.0000
  C   C45       1.0  0.61220  0.80550  0.37080  1.0000
  C   C46       1.0  0.38780  0.19450  0.37080  1.0000
  C   C47       1.0  0.63780  0.05550  0.62080  1.0000
  C   C48       1.0  0.36220  0.94450  0.62080  1.0000
  H   H17       1.0  0.13300  0.31710  0.39550  1.0000
  H   H18       1.0  0.86700  0.68290  0.39550  1.0000
  H   H19       1.0  0.11700  0.56710  0.64550  1.0000
  H   H20       1.0  0.88300  0.43290  0.64550  1.0000
  H   H21       1.0  0.13300  0.81710  0.89550  1.0000
  H   H22       1.0  0.86700  0.18290  0.89550  1.0000
  H   H23       1.0  0.11700  0.06710  0.14550  1.0000
  H   H24       1.0  0.88300  0.93290  0.14550  1.0000
  H   H25       1.0  0.63300  0.31710  0.89550  1.0000
  H   H26       1.0  0.36700  0.68290  0.89550  1.0000
  H   H27       1.0  0.61700  0.56710  0.14550  1.0000
  H   H28       1.0  0.38300  0.43290  0.14550  1.0000
  H   H29       1.0  0.63300  0.81710  0.39550  1.0000
  H   H30       1.0  0.36700  0.18290  0.39550  1.0000
  H   H31       1.0  0.61700  0.06710  0.64550  1.0000
  H   H32       1.0  0.38300  0.93290  0.64550  1.0000
  C   C49       1.0  0.10460  0.24420  0.35690  1.0000
  C   C50       1.0  0.89540  0.75580  0.35690  1.0000
  C   C51       1.0  0.14540  0.49420  0.60690  1.0000
  C   C52       1.0  0.85460  0.50580  0.60690  1.0000
  C   C53       1.0  0.10460  0.74420  0.85690  1.0000
  C   C54       1.0  0.89540  0.25580  0.85690  1.0000
  C   C55       1.0  0.14540  0.99420  0.10690  1.0000
  C   C56       1.0  0.85460  0.00580  0.10690  1.0000
  C   C57       1.0  0.60460  0.24420  0.85690  1.0000
  C   C58       1.0  0.39540  0.75580  0.85690  1.0000
  C   C59       1.0  0.64540  0.49420  0.10690  1.0000
  C   C60       1.0  0.35460  0.50580  0.10690  1.0000
  C   C61       1.0  0.60460  0.74420  0.35690  1.0000
  C   C62       1.0  0.39540  0.25580  0.35690  1.0000
  C   C63       1.0  0.64540  0.99420  0.60690  1.0000
  C   C64       1.0  0.35460  0.00580  0.60690  1.0000
  H   H33       1.0  0.11980  0.21220  0.36870  1.0000
  H   H34       1.0  0.88020  0.78780  0.36870  1.0000
  H   H35       1.0  0.13020  0.46220  0.61870  1.0000
  H   H36       1.0  0.86980  0.53780  0.61870  1.0000
  H   H37       1.0  0.11980  0.71220  0.86870  1.0000
  H   H38       1.0  0.88020  0.28780  0.86870  1.0000
  H   H39       1.0  0.13020  0.96220  0.11870  1.0000
  H   H40       1.0  0.86980  0.03780  0.11870  1.0000
  H   H41       1.0  0.61980  0.21220  0.86870  1.0000
  H   H42       1.0  0.38020  0.78780  0.86870  1.0000
  H   H43       1.0  0.63020  0.46220  0.11870  1.0000
  H   H44       1.0  0.36980  0.53780  0.11870  1.0000
  H   H45       1.0  0.61980  0.71220  0.36870  1.0000
  H   H46       1.0  0.38020  0.28780  0.36870  1.0000
  H   H47       1.0  0.63020  0.96220  0.61870  1.0000
  H   H48       1.0  0.36980  0.03780  0.61870  1.0000
  C   C65       1.0  0.07300  0.22940  0.32400  1.0000
  C   C66       1.0  0.92700  0.77060  0.32400  1.0000
  C   C67       1.0  0.17700  0.47940  0.57400  1.0000
  C   C68       1.0  0.82300  0.52060  0.57400  1.0000
  C   C69       1.0  0.07300  0.72940  0.82400  1.0000
  C   C70       1.0  0.92700  0.27060  0.82400  1.0000
  C   C71       1.0  0.17700  0.97940  0.07400  1.0000
  C   C72       1.0  0.82300  0.02060  0.07400  1.0000
  C   C73       1.0  0.57300  0.22940  0.82400  1.0000
  C   C74       1.0  0.42700  0.77060  0.82400  1.0000
  C   C75       1.0  0.67700  0.47940  0.07400  1.0000
  C   C76       1.0  0.32300  0.52060  0.07400  1.0000
  C   C77       1.0  0.57300  0.72940  0.32400  1.0000
  C   C78       1.0  0.42700  0.27060  0.32400  1.0000
  C   C79       1.0  0.67700  0.97940  0.57400  1.0000
  C   C80       1.0  0.32300  0.02060  0.57400  1.0000
  C   C81       1.0  0.03200  0.37810  0.27250  1.0000
  C   C82       1.0  0.96800  0.62190  0.27250  1.0000
  C   C83       1.0  0.21800  0.62810  0.52250  1.0000
  C   C84       1.0  0.78200  0.37190  0.52250  1.0000
  C   C85       1.0  0.03200  0.87810  0.77250  1.0000
  C   C86       1.0  0.96800  0.12190  0.77250  1.0000
  C   C87       1.0  0.21800  0.12810  0.02250  1.0000
  C   C88       1.0  0.78200  0.87190  0.02250  1.0000
  C   C89       1.0  0.53200  0.37810  0.77250  1.0000
  C   C90       1.0  0.46800  0.62190  0.77250  1.0000
  C   C91       1.0  0.71800  0.62810  0.02250  1.0000
  C   C92       1.0  0.28200  0.37190  0.02250  1.0000
  C   C93       1.0  0.53200  0.87810  0.27250  1.0000
  C   C94       1.0  0.46800  0.12190  0.27250  1.0000
  C   C95       1.0  0.71800  0.12810  0.52250  1.0000
  C   C96       1.0  0.28200  0.87190  0.52250  1.0000
  C   C97       1.0  0.05640  0.16550  0.32690  1.0000
  C   C98       1.0  0.94360  0.83450  0.32690  1.0000
  C   C99       1.0  0.19360  0.41550  0.57690  1.0000
  C   C100      1.0  0.80640  0.58450  0.57690  1.0000
  C   C101      1.0  0.05640  0.66550  0.82690  1.0000
  C   C102      1.0  0.94360  0.33450  0.82690  1.0000
  C   C103      1.0  0.19360  0.91550  0.07690  1.0000
  C   C104      1.0  0.80640  0.08450  0.07690  1.0000
  C   C105      1.0  0.55640  0.16550  0.82690  1.0000
  C   C106      1.0  0.44360  0.83450  0.82690  1.0000
  C   C107      1.0  0.69360  0.41550  0.07690  1.0000
  C   C108      1.0  0.30640  0.58450  0.07690  1.0000
  C   C109      1.0  0.55640  0.66550  0.32690  1.0000
  C   C110      1.0  0.44360  0.33450  0.32690  1.0000
  C   C111      1.0  0.69360  0.91550  0.57690  1.0000
  C   C112      1.0  0.30640  0.08450  0.57690  1.0000
  C   C113      1.0  0.96870  0.10620  0.31030  1.0000
  C   C114      1.0  0.03130  0.89380  0.31030  1.0000
  C   C115      1.0  0.28130  0.35620  0.56030  1.0000
  C   C116      1.0  0.71870  0.64380  0.56030  1.0000
  C   C117      1.0  0.96870  0.60620  0.81030  1.0000
  C   C118      1.0  0.03130  0.39380  0.81030  1.0000
  C   C119      1.0  0.28130  0.85620  0.06030  1.0000
  C   C120      1.0  0.71870  0.14380  0.06030  1.0000
  C   C121      1.0  0.46870  0.10620  0.81030  1.0000
  C   C122      1.0  0.53130  0.89380  0.81030  1.0000
  C   C123      1.0  0.78130  0.35620  0.06030  1.0000
  C   C124      1.0  0.21870  0.64380  0.06030  1.0000
  C   C125      1.0  0.46870  0.60620  0.31030  1.0000
  C   C126      1.0  0.53130  0.39380  0.31030  1.0000
  C   C127      1.0  0.78130  0.85620  0.56030  1.0000
  C   C128      1.0  0.21870  0.14380  0.56030  1.0000
  H   H49       1.0  0.98940  0.09160  0.29360  1.0000
  H   H50       1.0  0.01060  0.90840  0.29360  1.0000
  H   H51       1.0  0.26060  0.34160  0.54360  1.0000
  H   H52       1.0  0.73940  0.65840  0.54360  1.0000
  H   H53       1.0  0.98940  0.59160  0.79360  1.0000
  H   H54       1.0  0.01060  0.40840  0.79360  1.0000
  H   H55       1.0  0.26060  0.84160  0.04360  1.0000
  H   H56       1.0  0.73940  0.15840  0.04360  1.0000
  H   H57       1.0  0.48940  0.09160  0.79360  1.0000
  H   H58       1.0  0.51060  0.90840  0.79360  1.0000
  H   H59       1.0  0.76060  0.34160  0.04360  1.0000
  H   H60       1.0  0.23940  0.65840  0.04360  1.0000
  H   H61       1.0  0.48940  0.59160  0.29360  1.0000
  H   H62       1.0  0.51060  0.40840  0.29360  1.0000
  H   H63       1.0  0.76060  0.84160  0.54360  1.0000
  H   H64       1.0  0.23940  0.15840  0.54360  1.0000
  C   C129      1.0  0.94510  0.06180  0.35040  1.0000
  C   C130      1.0  0.05490  0.93820  0.35040  1.0000
  C   C131      1.0  0.30490  0.31180  0.60040  1.0000
  C   C132      1.0  0.69510  0.68820  0.60040  1.0000
  C   C133      1.0  0.94510  0.56180  0.85040  1.0000
  C   C134      1.0  0.05490  0.43820  0.85040  1.0000
  C   C135      1.0  0.30490  0.81180  0.10040  1.0000
  C   C136      1.0  0.69510  0.18820  0.10040  1.0000
  C   C137      1.0  0.44510  0.06180  0.85040  1.0000
  C   C138      1.0  0.55490  0.93820  0.85040  1.0000
  C   C139      1.0  0.80490  0.31180  0.10040  1.0000
  C   C140      1.0  0.19510  0.68820  0.10040  1.0000
  C   C141      1.0  0.44510  0.56180  0.35040  1.0000
  C   C142      1.0  0.55490  0.43820  0.35040  1.0000
  C   C143      1.0  0.80490  0.81180  0.60040  1.0000
  C   C144      1.0  0.19510  0.18820  0.60040  1.0000
  H   H65       1.0  0.94960  0.01820  0.35890  1.0000
  H   H66       1.0  0.05040  0.98180  0.35890  1.0000
  H   H67       1.0  0.30040  0.26820  0.60890  1.0000
  H   H68       1.0  0.69960  0.73180  0.60890  1.0000
  H   H69       1.0  0.94960  0.51820  0.85890  1.0000
  H   H70       1.0  0.05040  0.48180  0.85890  1.0000
  H   H71       1.0  0.30040  0.76820  0.10890  1.0000
  H   H72       1.0  0.69960  0.23180  0.10890  1.0000
  H   H73       1.0  0.44960  0.01820  0.85890  1.0000
  H   H74       1.0  0.55040  0.98180  0.85890  1.0000
  H   H75       1.0  0.80040  0.26820  0.10890  1.0000
  H   H76       1.0  0.19960  0.73180  0.10890  1.0000
  H   H77       1.0  0.44960  0.51820  0.35890  1.0000
  H   H78       1.0  0.55040  0.48180  0.35890  1.0000
  H   H79       1.0  0.80040  0.76820  0.60890  1.0000
  H   H80       1.0  0.19960  0.23180  0.60890  1.0000
  C   C145      1.0  0.91500  0.08460  0.37700  1.0000
  C   C146      1.0  0.08500  0.91540  0.37700  1.0000
  C   C147      1.0  0.33500  0.33460  0.62700  1.0000
  C   C148      1.0  0.66500  0.66540  0.62700  1.0000
  C   C149      1.0  0.91500  0.58460  0.87700  1.0000
  C   C150      1.0  0.08500  0.41540  0.87700  1.0000
  C   C151      1.0  0.33500  0.83460  0.12700  1.0000
  C   C152      1.0  0.66500  0.16540  0.12700  1.0000
  C   C153      1.0  0.41500  0.08460  0.87700  1.0000
  C   C154      1.0  0.58500  0.91540  0.87700  1.0000
  C   C155      1.0  0.83500  0.33460  0.12700  1.0000
  C   C156      1.0  0.16500  0.66540  0.12700  1.0000
  C   C157      1.0  0.41500  0.58460  0.37700  1.0000
  C   C158      1.0  0.58500  0.41540  0.37700  1.0000
  C   C159      1.0  0.83500  0.83460  0.62700  1.0000
  C   C160      1.0  0.16500  0.16540  0.62700  1.0000
  H   H81       1.0  0.89870  0.05600  0.40490  1.0000
  H   H82       1.0  0.10130  0.94400  0.40490  1.0000
  H   H83       1.0  0.35130  0.30600  0.65490  1.0000
  H   H84       1.0  0.64870  0.69400  0.65490  1.0000
  H   H85       1.0  0.89870  0.55600  0.90490  1.0000
  H   H86       1.0  0.10130  0.44400  0.90490  1.0000
  H   H87       1.0  0.35130  0.80600  0.15490  1.0000
  H   H88       1.0  0.64870  0.19400  0.15490  1.0000
  H   H89       1.0  0.39870  0.05600  0.90490  1.0000
  H   H90       1.0  0.60130  0.94400  0.90490  1.0000
  H   H91       1.0  0.85130  0.30600  0.15490  1.0000
  H   H92       1.0  0.14870  0.69400  0.15490  1.0000
  H   H93       1.0  0.39870  0.55600  0.40490  1.0000
  H   H94       1.0  0.60130  0.44400  0.40490  1.0000
  H   H95       1.0  0.85130  0.80600  0.65490  1.0000
  H   H96       1.0  0.14870  0.19400  0.65490  1.0000
  C   C161      1.0  0.90810  0.15220  0.36210  1.0000
  C   C162      1.0  0.09190  0.84780  0.36210  1.0000
  C   C163      1.0  0.34190  0.40220  0.61210  1.0000
  C   C164      1.0  0.65810  0.59780  0.61210  1.0000
  C   C165      1.0  0.90810  0.65220  0.86210  1.0000
  C   C166      1.0  0.09190  0.34780  0.86210  1.0000
  C   C167      1.0  0.34190  0.90220  0.11210  1.0000
  C   C168      1.0  0.65810  0.09780  0.11210  1.0000
  C   C169      1.0  0.40810  0.15220  0.86210  1.0000
  C   C170      1.0  0.59190  0.84780  0.86210  1.0000
  C   C171      1.0  0.84190  0.40220  0.11210  1.0000
  C   C172      1.0  0.15810  0.59780  0.11210  1.0000
  C   C173      1.0  0.40810  0.65220  0.36210  1.0000
  C   C174      1.0  0.59190  0.34780  0.36210  1.0000
  C   C175      1.0  0.84190  0.90220  0.61210  1.0000
  C   C176      1.0  0.15810  0.09780  0.61210  1.0000
  H   H97       1.0  0.88790  0.16850  0.38300  1.0000
  H   H98       1.0  0.11210  0.83150  0.38300  1.0000
  H   H99       1.0  0.36210  0.41850  0.63300  1.0000
  H   H100      1.0  0.63790  0.58150  0.63300  1.0000
  H   H101      1.0  0.88790  0.66850  0.88300  1.0000
  H   H102      1.0  0.11210  0.33150  0.88300  1.0000
  H   H103      1.0  0.36210  0.91850  0.13300  1.0000
  H   H104      1.0  0.63790  0.08150  0.13300  1.0000
  H   H105      1.0  0.38790  0.16850  0.88300  1.0000
  H   H106      1.0  0.61210  0.83150  0.88300  1.0000
  H   H107      1.0  0.86210  0.41850  0.13300  1.0000
  H   H108      1.0  0.13790  0.58150  0.13300  1.0000
  H   H109      1.0  0.38790  0.66850  0.38300  1.0000
  H   H110      1.0  0.61210  0.33150  0.38300  1.0000
  H   H111      1.0  0.86210  0.91850  0.63300  1.0000
  H   H112      1.0  0.13790  0.08150  0.63300  1.0000
  C   C177      1.0  0.93340  0.19180  0.31470  1.0000
  C   C178      1.0  0.06660  0.80820  0.31470  1.0000
  C   C179      1.0  0.31660  0.44180  0.56470  1.0000
  C   C180      1.0  0.68340  0.55820  0.56470  1.0000
  C   C181      1.0  0.93340  0.69180  0.81470  1.0000
  C   C182      1.0  0.06660  0.30820  0.81470  1.0000
  C   C183      1.0  0.31660  0.94180  0.06470  1.0000
  C   C184      1.0  0.68340  0.05820  0.06470  1.0000
  C   C185      1.0  0.43340  0.19180  0.81470  1.0000
  C   C186      1.0  0.56660  0.80820  0.81470  1.0000
  C   C187      1.0  0.81660  0.44180  0.06470  1.0000
  C   C188      1.0  0.18340  0.55820  0.06470  1.0000
  C   C189      1.0  0.43340  0.69180  0.31470  1.0000
  C   C190      1.0  0.56660  0.30820  0.31470  1.0000
  C   C191      1.0  0.81660  0.94180  0.56470  1.0000
  C   C192      1.0  0.18340  0.05820  0.56470  1.0000
  C   C193      1.0  0.92910  0.26210  0.29460  1.0000
  C   C194      1.0  0.07090  0.73790  0.29460  1.0000
  C   C195      1.0  0.32090  0.51210  0.54460  1.0000
  C   C196      1.0  0.67910  0.48790  0.54460  1.0000
  C   C197      1.0  0.92910  0.76210  0.79460  1.0000
  C   C198      1.0  0.07090  0.23790  0.79460  1.0000
  C   C199      1.0  0.32090  0.01210  0.04460  1.0000
  C   C200      1.0  0.67910  0.98790  0.04460  1.0000
  C   C201      1.0  0.42910  0.26210  0.79460  1.0000
  C   C202      1.0  0.57090  0.73790  0.79460  1.0000
  C   C203      1.0  0.82090  0.51210  0.04460  1.0000
  C   C204      1.0  0.17910  0.48790  0.04460  1.0000
  C   C205      1.0  0.42910  0.76210  0.29460  1.0000
  C   C206      1.0  0.57090  0.23790  0.29460  1.0000
  C   C207      1.0  0.82090  0.01210  0.54460  1.0000
  C   C208      1.0  0.17910  0.98790  0.54460  1.0000
