data_image0
_chemical_formula_structural       Cd4Br4O16C12H4C4H4C12H4C4H4C4H4C4H4C8
_chemical_formula_sum              "Cd4 Br4 O16 C48 H24"
_cell_length_a       10.3432
_cell_length_b       15.816
_cell_length_c       11.1281
_cell_angle_alpha    90
_cell_angle_beta     94.599
_cell_angle_gamma    90

_space_group_name_H-M_alt    "P 1"
_space_group_IT_number       1

loop_
  _space_group_symop_operation_xyz
  'x, y, z'

loop_
  _atom_site_type_symbol
  _atom_site_label
  _atom_site_symmetry_multiplicity
  _atom_site_fract_x
  _atom_site_fract_y
  _atom_site_fract_z
  _atom_site_occupancy
  Cd  Cd1       1.0  0.61898  0.51832  0.10417  1.0000
  Cd  Cd2       1.0  0.88102  0.01832  0.39583  1.0000
  Cd  Cd3       1.0  0.38102  0.48168  0.89583  1.0000
  Cd  Cd4       1.0  0.11898  0.98168  0.60417  1.0000
  Br  Br1       1.0  0.80603  0.55482  0.25881  1.0000
  Br  Br2       1.0  0.69397  0.05482  0.24119  1.0000
  Br  Br3       1.0  0.19397  0.44518  0.74119  1.0000
  Br  Br4       1.0  0.30603  0.94518  0.75881  1.0000
  O   O1        1.0  0.52180  0.40710  0.18230  1.0000
  O   O2        1.0  0.97820  0.90710  0.31770  1.0000
  O   O3        1.0  0.47820  0.59290  0.81770  1.0000
  O   O4        1.0  0.02180  0.09290  0.68230  1.0000
  O   O5        1.0  0.36580  0.38520  0.04260  1.0000
  O   O6        1.0  0.13420  0.88520  0.45740  1.0000
  O   O7        1.0  0.63420  0.61480  0.95740  1.0000
  O   O8        1.0  0.86580  0.11480  0.54260  1.0000
  O   O9        1.0  0.20480  0.07220  0.47690  1.0000
  O   O10       1.0  0.29520  0.57220  0.02310  1.0000
  O   O11       1.0  0.79520  0.92780  0.52310  1.0000
  O   O12       1.0  0.70480  0.42780  0.97690  1.0000
  O   O13       1.0  0.04500  0.09710  0.34130  1.0000
  O   O14       1.0  0.45500  0.59710  0.15870  1.0000
  O   O15       1.0  0.95500  0.90290  0.65870  1.0000
  O   O16       1.0  0.54500  0.40290  0.84130  1.0000
  C   C1        1.0  0.42210  0.37190  0.14250  1.0000
  C   C2        1.0  0.07790  0.87190  0.35750  1.0000
  C   C3        1.0  0.57790  0.62810  0.85750  1.0000
  C   C4        1.0  0.92210  0.12810  0.64250  1.0000
  C   C5        1.0  0.36250  0.30660  0.21820  1.0000
  C   C6        1.0  0.13750  0.80660  0.28180  1.0000
  C   C7        1.0  0.63750  0.69340  0.78180  1.0000
  C   C8        1.0  0.86250  0.19340  0.71820  1.0000
  C   C9        1.0  0.40110  0.22370  0.21630  1.0000
  C   C10       1.0  0.09890  0.72370  0.28370  1.0000
  C   C11       1.0  0.59890  0.77630  0.78370  1.0000
  C   C12       1.0  0.90110  0.27630  0.71630  1.0000
  H   H1        1.0  0.47170  0.20890  0.17400  1.0000
  H   H2        1.0  0.02830  0.70890  0.32600  1.0000
  H   H3        1.0  0.52830  0.79110  0.82600  1.0000
  H   H4        1.0  0.97170  0.29110  0.67400  1.0000
  C   C13       1.0  0.33640  0.16080  0.27670  1.0000
  C   C14       1.0  0.16360  0.66080  0.22330  1.0000
  C   C15       1.0  0.66360  0.83920  0.72330  1.0000
  C   C16       1.0  0.83640  0.33920  0.77670  1.0000
  H   H5        1.0  0.36540  0.10510  0.27510  1.0000
  H   H6        1.0  0.13460  0.60510  0.22490  1.0000
  H   H7        1.0  0.63460  0.89490  0.72490  1.0000
  H   H8        1.0  0.86540  0.39490  0.77510  1.0000
  C   C17       1.0  0.23150  0.18030  0.33750  1.0000
  C   C18       1.0  0.26850  0.68030  0.16250  1.0000
  C   C19       1.0  0.76850  0.81970  0.66250  1.0000
  C   C20       1.0  0.73150  0.31970  0.83750  1.0000
  C   C21       1.0  0.19270  0.26570  0.34850  1.0000
  C   C22       1.0  0.30730  0.76570  0.15150  1.0000
  C   C23       1.0  0.80730  0.73430  0.65150  1.0000
  C   C24       1.0  0.69270  0.23430  0.84850  1.0000
  C   C25       1.0  0.09060  0.29070  0.41850  1.0000
  C   C26       1.0  0.40940  0.79070  0.08150  1.0000
  C   C27       1.0  0.90940  0.70930  0.58150  1.0000
  C   C28       1.0  0.59060  0.20930  0.91850  1.0000
  H   H9        1.0  0.04390  0.24980  0.45680  1.0000
  H   H10       1.0  0.45610  0.74980  0.04320  1.0000
  H   H11       1.0  0.95610  0.75020  0.54320  1.0000
  H   H12       1.0  0.54390  0.25020  0.95680  1.0000
  C   C29       1.0  0.06010  0.37380  0.43010  1.0000
  C   C30       1.0  0.43990  0.87380  0.06990  1.0000
  C   C31       1.0  0.93990  0.62620  0.56990  1.0000
  C   C32       1.0  0.56010  0.12620  0.93010  1.0000
  H   H13       1.0  0.99260  0.38880  0.47630  1.0000
  H   H14       1.0  0.50740  0.88880  0.02370  1.0000
  H   H15       1.0  0.00740  0.61120  0.52370  1.0000
  H   H16       1.0  0.49260  0.11120  0.97630  1.0000
  C   C33       1.0  0.12680  0.43590  0.37510  1.0000
  C   C34       1.0  0.37320  0.93590  0.12490  1.0000
  C   C35       1.0  0.87320  0.56410  0.62490  1.0000
  C   C36       1.0  0.62680  0.06410  0.87510  1.0000
  H   H17       1.0  0.10570  0.49240  0.38610  1.0000
  H   H18       1.0  0.39430  0.99240  0.11390  1.0000
  H   H19       1.0  0.89430  0.50760  0.61390  1.0000
  H   H20       1.0  0.60570  0.00760  0.88610  1.0000
  C   C37       1.0  0.22440  0.41530  0.30410  1.0000
  C   C38       1.0  0.27560  0.91530  0.19590  1.0000
  C   C39       1.0  0.77560  0.58470  0.69590  1.0000
  C   C40       1.0  0.72440  0.08470  0.80410  1.0000
  H   H21       1.0  0.26710  0.45770  0.26490  1.0000
  H   H22       1.0  0.23290  0.95770  0.23510  1.0000
  H   H23       1.0  0.73290  0.54230  0.73510  1.0000
  H   H24       1.0  0.76710  0.04230  0.76490  1.0000
  C   C41       1.0  0.26020  0.33000  0.29010  1.0000
  C   C42       1.0  0.23980  0.83000  0.20990  1.0000
  C   C43       1.0  0.73980  0.67000  0.70990  1.0000
  C   C44       1.0  0.76020  0.17000  0.79010  1.0000
  C   C45       1.0  0.15470  0.11080  0.39080  1.0000
  C   C46       1.0  0.34530  0.61080  0.10920  1.0000
  C   C47       1.0  0.84530  0.88920  0.60920  1.0000
  C   C48       1.0  0.65470  0.38920  0.89080  1.0000
