data_image0
_chemical_formula_structural       U3P4O22C4H2C2H2C2H2C2H2C2H2C2H8C8H2C2H2C2H2C2H2C2H2C2H4C2H4C2
_chemical_formula_sum              "U3 P4 O22 C36 H36"
_cell_length_a       12.3153
_cell_length_b       13.5938
_cell_length_c       13.672
_cell_angle_alpha    61.332
_cell_angle_beta     83.244
_cell_angle_gamma    66.884

_space_group_name_H-M_alt    "P 1"
_space_group_IT_number       1

loop_
  _space_group_symop_operation_xyz
  'x, y, z'

loop_
  _atom_site_type_symbol
  _atom_site_label
  _atom_site_symmetry_multiplicity
  _atom_site_fract_x
  _atom_site_fract_y
  _atom_site_fract_z
  _atom_site_occupancy
  U   U1        1.0  0.50000  0.50000  0.50000  1.0000
  U   U2        1.0  0.35947  0.01582  0.21931  1.0000
  U   U3        1.0  0.64053  0.98418  0.78069  1.0000
  P   P1        1.0  0.56470  0.22770  0.48298  1.0000
  P   P2        1.0  0.43530  0.77230  0.51702  1.0000
  P   P3        1.0  0.59230  0.26170  0.78773  1.0000
  P   P4        1.0  0.40770  0.73830  0.21227  1.0000
  O   O1        1.0  0.63530  0.51300  0.44780  1.0000
  O   O2        1.0  0.36470  0.48700  0.55220  1.0000
  O   O3        1.0  0.21500  0.05520  0.26350  1.0000
  O   O4        1.0  0.78500  0.94480  0.73650  1.0000
  O   O5        1.0  0.50460  0.98020  0.17430  1.0000
  O   O6        1.0  0.49540  0.01980  0.82570  1.0000
  O   O7        1.0  0.52770  0.36330  0.43890  1.0000
  O   O8        1.0  0.47230  0.63670  0.56110  1.0000
  O   O9        1.0  0.57150  0.15760  0.60860  1.0000
  O   O10       1.0  0.42850  0.84240  0.39140  1.0000
  O   O11       1.0  0.36300  0.21560  0.17660  1.0000
  O   O12       1.0  0.63700  0.78440  0.82340  1.0000
  O   O13       1.0  0.42880  0.06360  0.34500  1.0000
  O   O14       1.0  0.57120  0.93640  0.65500  1.0000
  O   O15       1.0  0.27300  0.13960  0.03880  1.0000
  O   O16       1.0  0.72700  0.86040  0.96120  1.0000
  O   O17       1.0  0.23220  0.24220  0.85580  1.0000
  O   O18       1.0  0.76780  0.75780  0.14420  1.0000
  O   O19       1.0  0.65740  0.13070  0.81240  1.0000
  O   O20       1.0  0.34260  0.86930  0.18760  1.0000
  O   O21       1.0  0.59800  0.35480  0.66880  1.0000
  O   O22       1.0  0.40200  0.64520  0.33120  1.0000
  C   C1        1.0  0.70550  0.17450  0.43120  1.0000
  C   C2        1.0  0.29450  0.82550  0.56880  1.0000
  C   C3        1.0  0.76640  0.24870  0.37650  1.0000
  C   C4        1.0  0.23360  0.75130  0.62350  1.0000
  H   H1        1.0  0.73390  0.32750  0.36680  1.0000
  H   H2        1.0  0.26610  0.67250  0.63320  1.0000
  C   C5        1.0  0.87360  0.21130  0.33550  1.0000
  C   C6        1.0  0.12640  0.78870  0.66450  1.0000
  H   H3        1.0  0.91200  0.26440  0.29740  1.0000
  H   H4        1.0  0.08800  0.73560  0.70260  1.0000
  C   C7        1.0  0.92250  0.09570  0.35150  1.0000
  C   C8        1.0  0.07750  0.90430  0.64850  1.0000
  H   H5        1.0  0.99580  0.06850  0.32570  1.0000
  H   H6        1.0  0.00420  0.93150  0.67430  1.0000
  C   C9        1.0  0.86360  0.01830  0.40620  1.0000
  C   C10       1.0  0.13640  0.98170  0.59380  1.0000
  H   H7        1.0  0.89570  0.94020  0.41420  1.0000
  H   H8        1.0  0.10430  0.05980  0.58580  1.0000
  C   C11       1.0  0.75660  0.05720  0.44910  1.0000
  C   C12       1.0  0.24340  0.94280  0.55090  1.0000
  H   H9        1.0  0.71950  0.00340  0.49000  1.0000
  H   H10       1.0  0.28050  0.99660  0.51000  1.0000
  C   C13       1.0  0.46280  0.19970  0.42760  1.0000
  C   C14       1.0  0.53720  0.80030  0.57240  1.0000
  H   H11       1.0  0.48330  0.11260  0.46490  1.0000
  H   H12       1.0  0.51670  0.88740  0.53510  1.0000
  H   H13       1.0  0.38450  0.23620  0.44750  1.0000
  H   H14       1.0  0.61550  0.76380  0.55250  1.0000
  H   H15       1.0  0.53180  0.23980  0.27370  1.0000
  H   H16       1.0  0.46820  0.76020  0.72630  1.0000
  H   H17       1.0  0.40080  0.33020  0.26340  1.0000
  H   H18       1.0  0.59920  0.66980  0.73660  1.0000
  C   C15       1.0  0.45430  0.24530  0.30080  1.0000
  C   C16       1.0  0.54570  0.75470  0.69920  1.0000
  C   C17       1.0  0.41010  0.17240  0.27240  1.0000
  C   C18       1.0  0.58990  0.82760  0.72760  1.0000
  C   C19       1.0  0.65730  0.28390  0.88260  1.0000
  C   C20       1.0  0.34270  0.71610  0.11740  1.0000
  C   C21       1.0  0.69100  0.19560  0.99090  1.0000
  C   C22       1.0  0.30900  0.80440  0.00910  1.0000
  H   H19       1.0  0.68190  0.12280  0.01540  1.0000
  H   H20       1.0  0.31810  0.87720  0.98460  1.0000
  C   C23       1.0  0.73860  0.21360  0.06460  1.0000
  C   C24       1.0  0.26140  0.78640  0.93540  1.0000
  H   H21       1.0  0.75980  0.15300  0.13860  1.0000
  H   H22       1.0  0.24020  0.84700  0.86140  1.0000
  C   C25       1.0  0.75480  0.31680  0.03150  1.0000
  C   C26       1.0  0.24520  0.68320  0.96850  1.0000
  H   H23       1.0  0.78270  0.32970  0.08300  1.0000
  H   H24       1.0  0.21730  0.67030  0.91700  1.0000
  C   C27       1.0  0.72950  0.40380  0.92000  1.0000
  C   C28       1.0  0.27050  0.59620  0.08000  1.0000
  H   H25       1.0  0.74910  0.47120  0.89380  1.0000
  H   H26       1.0  0.25090  0.52880  0.10620  1.0000
  C   C29       1.0  0.67350  0.38900  0.84620  1.0000
  C   C30       1.0  0.32650  0.61100  0.15380  1.0000
  H   H27       1.0  0.64780  0.45080  0.77310  1.0000
  H   H28       1.0  0.35220  0.54920  0.22690  1.0000
  C   C31       1.0  0.44070  0.28930  0.81170  1.0000
  C   C32       1.0  0.55930  0.71070  0.18830  1.0000
  H   H29       1.0  0.40000  0.37340  0.79550  1.0000
  H   H30       1.0  0.60000  0.62660  0.20450  1.0000
  H   H31       1.0  0.40570  0.27820  0.75960  1.0000
  H   H32       1.0  0.59430  0.72180  0.24040  1.0000
  C   C33       1.0  0.41940  0.20850  0.92970  1.0000
  C   C34       1.0  0.58060  0.79150  0.07030  1.0000
  H   H33       1.0  0.42460  0.24100  0.97770  1.0000
  H   H34       1.0  0.57540  0.75900  0.02230  1.0000
  H   H35       1.0  0.48180  0.12820  0.95690  1.0000
  H   H36       1.0  0.51820  0.87180  0.04310  1.0000
  C   C35       1.0  0.29940  0.19670  0.93910  1.0000
  C   C36       1.0  0.70060  0.80330  0.06090  1.0000
