data_image0
_chemical_formula_structural       Cd2N6O14C8H4C2H4C4H4C2H4C2
_chemical_formula_sum              "Cd2 N6 O14 C18 H16"
_cell_length_a       8.6333
_cell_length_b       9.7461
_cell_length_c       10.2243
_cell_angle_alpha    92.742
_cell_angle_beta     105.95
_cell_angle_gamma    115.039

_space_group_name_H-M_alt    "P 1"
_space_group_IT_number       1

loop_
  _space_group_symop_operation_xyz
  'x, y, z'

loop_
  _atom_site_type_symbol
  _atom_site_label
  _atom_site_symmetry_multiplicity
  _atom_site_fract_x
  _atom_site_fract_y
  _atom_site_fract_z
  _atom_site_occupancy
  Cd  Cd1       1.0  0.85621  0.35483  0.36756  1.0000
  Cd  Cd2       1.0  0.14379  0.64517  0.63244  1.0000
  N   N1        1.0  0.80710  0.20661  0.52758  1.0000
  N   N2        1.0  0.19290  0.79339  0.47242  1.0000
  N   N3        1.0  0.68640  0.94992  0.56303  1.0000
  N   N4        1.0  0.31360  0.05008  0.43697  1.0000
  N   N5        1.0  0.82220  0.15416  0.75206  1.0000
  N   N6        1.0  0.17780  0.84584  0.24794  1.0000
  O   O1        1.0  0.97074  0.39859  0.71852  1.0000
  O   O2        1.0  0.02926  0.60141  0.28148  1.0000
  O   O3        1.0  0.66480  0.00679  0.34760  1.0000
  O   O4        1.0  0.33520  0.99321  0.65240  1.0000
  O   O5        1.0  0.71730  0.90505  0.78306  1.0000
  O   O6        1.0  0.28270  0.09495  0.21694  1.0000
  O   O7        1.0  0.58377  0.51563  0.35474  1.0000
  O   O8        1.0  0.41623  0.48437  0.64526  1.0000
  O   O9        1.0  0.84202  0.53863  0.49680  1.0000
  O   O10       1.0  0.15798  0.46137  0.50320  1.0000
  O   O11       1.0  0.91504  0.25148  0.18037  1.0000
  O   O12       1.0  0.08496  0.74852  0.81963  1.0000
  O   O13       1.0  0.67091  0.28358  0.14561  1.0000
  O   O14       1.0  0.32909  0.71642  0.85439  1.0000
  C   C1        1.0  0.87210  0.26070  0.66633  1.0000
  C   C2        1.0  0.12790  0.73930  0.33367  1.0000
  C   C3        1.0  0.71720  0.05350  0.47352  1.0000
  C   C4        1.0  0.28280  0.94650  0.52648  1.0000
  C   C5        1.0  0.74020  0.99660  0.70503  1.0000
  C   C6        1.0  0.25980  0.00340  0.29497  1.0000
  C   C7        1.0  0.61790  0.78510  0.50840  1.0000
  C   C8        1.0  0.38210  0.21490  0.49160  1.0000
  H   H1        1.0  0.54470  0.76030  0.41160  1.0000
  H   H2        1.0  0.45530  0.23970  0.58840  1.0000
  H   H3        1.0  0.54270  0.72280  0.55910  1.0000
  H   H4        1.0  0.45730  0.27720  0.44090  1.0000
  C   C9        1.0  0.77680  0.74950  0.52320  1.0000
  C   C10       1.0  0.22320  0.25050  0.47680  1.0000
  H   H5        1.0  0.86110  0.82480  0.48590  1.0000
  H   H6        1.0  0.13890  0.17520  0.51410  1.0000
  H   H7        1.0  0.83880  0.76170  0.62090  1.0000
  H   H8        1.0  0.16120  0.23830  0.37910  1.0000
  C   C11       1.0  0.72590  0.58940  0.45152  1.0000
  C   C12       1.0  0.27410  0.41060  0.54848  1.0000
  C   C13       1.0  0.87810  0.20610  0.90219  1.0000
  C   C14       1.0  0.12190  0.79390  0.09781  1.0000
  H   H9        1.0  0.96860  0.31330  0.92750  1.0000
  H   H10       1.0  0.03140  0.68670  0.07250  1.0000
  H   H11       1.0  0.93190  0.14560  0.95050  1.0000
  H   H12       1.0  0.06810  0.85440  0.04950  1.0000
  C   C15       1.0  0.71680  0.18900  0.94610  1.0000
  C   C16       1.0  0.28320  0.81100  0.05390  1.0000
  H   H13       1.0  0.66150  0.24760  0.89590  1.0000
  H   H14       1.0  0.33850  0.75240  0.10410  1.0000
  H   H15       1.0  0.62750  0.08150  0.92210  1.0000
  H   H16       1.0  0.37250  0.91850  0.07790  1.0000
  C   C17       1.0  0.77130  0.24470  0.09939  1.0000
  C   C18       1.0  0.22870  0.75530  0.90061  1.0000
