data_image0
_chemical_formula_structural       Cd6O16C4H4O8C4H4O4C4H4C4O4C8H4C4H4C12H4C8H4C4H4C4H4C4H4C4H4C12H4C4H4C4H4C8H4C16H4C4
_chemical_formula_sum              "Cd6 O32 C112 H64"
_cell_length_a       9.7108
_cell_length_b       19.9242
_cell_length_c       16.8732
_cell_angle_alpha    90
_cell_angle_beta     99.89
_cell_angle_gamma    90

_space_group_name_H-M_alt    "P 1"
_space_group_IT_number       1

loop_
  _space_group_symop_operation_xyz
  'x, y, z'

loop_
  _atom_site_type_symbol
  _atom_site_label
  _atom_site_symmetry_multiplicity
  _atom_site_fract_x
  _atom_site_fract_y
  _atom_site_fract_z
  _atom_site_occupancy
  Cd  Cd1       1.0  0.44299  0.83014  0.46776  1.0000
  Cd  Cd2       1.0  0.05701  0.33014  0.03224  1.0000
  Cd  Cd3       1.0  0.55701  0.16986  0.53224  1.0000
  Cd  Cd4       1.0  0.94299  0.66986  0.96776  1.0000
  Cd  Cd5       1.0  0.50000  0.00000  0.50000  1.0000
  Cd  Cd6       1.0  0.00000  0.50000  0.00000  1.0000
  O   O1        1.0  0.37050  0.72239  0.44822  1.0000
  O   O2        1.0  0.12950  0.22239  0.05178  1.0000
  O   O3        1.0  0.62950  0.27761  0.55178  1.0000
  O   O4        1.0  0.87050  0.77761  0.94822  1.0000
  O   O5        1.0  0.22776  0.87249  0.45842  1.0000
  O   O6        1.0  0.27224  0.37249  0.04158  1.0000
  O   O7        1.0  0.77224  0.12751  0.54158  1.0000
  O   O8        1.0  0.72776  0.62751  0.95842  1.0000
  O   O9        1.0  0.56843  0.91361  0.42410  1.0000
  O   O10       1.0  0.93157  0.41361  0.07590  1.0000
  O   O11       1.0  0.43157  0.08639  0.57590  1.0000
  O   O12       1.0  0.06843  0.58639  0.92410  1.0000
  O   O13       1.0  0.98862  0.57860  0.09305  1.0000
  O   O14       1.0  0.51138  0.07860  0.40695  1.0000
  O   O15       1.0  0.01138  0.42140  0.90695  1.0000
  O   O16       1.0  0.48862  0.92140  0.59305  1.0000
  C   C1        1.0  0.33560  0.43069  0.28640  1.0000
  C   C2        1.0  0.16440  0.93069  0.21360  1.0000
  C   C3        1.0  0.66440  0.56931  0.71360  1.0000
  C   C4        1.0  0.83560  0.06931  0.78640  1.0000
  H   H1        1.0  0.31520  0.44070  0.23180  1.0000
  H   H2        1.0  0.18480  0.94070  0.26820  1.0000
  H   H3        1.0  0.68480  0.55930  0.76820  1.0000
  H   H4        1.0  0.81520  0.05930  0.73180  1.0000
  O   O17       1.0  0.36200  0.77819  0.33441  1.0000
  O   O18       1.0  0.13800  0.27819  0.16559  1.0000
  O   O19       1.0  0.63800  0.22181  0.66559  1.0000
  O   O20       1.0  0.86200  0.72181  0.83441  1.0000
  O   O21       1.0  0.04510  0.68590  0.09650  1.0000
  O   O22       1.0  0.45490  0.18590  0.40350  1.0000
  O   O23       1.0  0.95490  0.31410  0.90350  1.0000
  O   O24       1.0  0.54510  0.81410  0.59650  1.0000
  C   C5        1.0  0.42120  0.35330  0.39020  1.0000
  C   C6        1.0  0.07880  0.85330  0.10980  1.0000
  C   C7        1.0  0.57880  0.64670  0.60980  1.0000
  C   C8        1.0  0.92120  0.14670  0.89020  1.0000
  H   H5        1.0  0.46030  0.31200  0.40700  1.0000
  H   H6        1.0  0.03970  0.81200  0.09300  1.0000
  H   H7        1.0  0.53970  0.68800  0.59300  1.0000
  H   H8        1.0  0.96030  0.18800  0.90700  1.0000
  O   O25       1.0  0.71240  0.82735  0.44803  1.0000
  O   O26       1.0  0.78760  0.32735  0.05197  1.0000
  O   O27       1.0  0.28760  0.17265  0.55197  1.0000
  O   O28       1.0  0.21240  0.67265  0.94803  1.0000
  C   C9        1.0  0.39480  0.36924  0.31040  1.0000
  C   C10       1.0  0.10520  0.86924  0.18960  1.0000
  C   C11       1.0  0.60520  0.63076  0.68960  1.0000
  C   C12       1.0  0.89480  0.13076  0.81040  1.0000
  H   H9        1.0  0.41660  0.33900  0.27240  1.0000
  H   H10       1.0  0.08340  0.83900  0.22760  1.0000
  H   H11       1.0  0.58340  0.66100  0.72760  1.0000
  H   H12       1.0  0.91660  0.16100  0.77240  1.0000
  C   C13       1.0  0.84410  0.09539  0.30180  1.0000
  C   C14       1.0  0.65590  0.59539  0.19820  1.0000
  C   C15       1.0  0.15590  0.90461  0.69820  1.0000
  C   C16       1.0  0.34410  0.40461  0.80180  1.0000
  O   O29       1.0  0.28874  0.97766  0.43404  1.0000
  O   O30       1.0  0.21126  0.47766  0.06596  1.0000
  O   O31       1.0  0.71126  0.02234  0.56596  1.0000
  O   O32       1.0  0.78874  0.52234  0.93404  1.0000
  C   C17       1.0  0.27360  0.66644  0.32768  1.0000
  C   C18       1.0  0.22640  0.16644  0.17232  1.0000
  C   C19       1.0  0.72640  0.33356  0.67232  1.0000
  C   C20       1.0  0.77360  0.83356  0.82768  1.0000
  C   C21       1.0  0.94410  0.91096  0.43060  1.0000
  C   C22       1.0  0.55590  0.41096  0.06940  1.0000
  C   C23       1.0  0.05590  0.08904  0.56940  1.0000
  C   C24       1.0  0.44410  0.58904  0.93060  1.0000
  H   H13       1.0  0.96540  0.87000  0.45630  1.0000
  H   H14       1.0  0.53460  0.37000  0.04370  1.0000
  H   H15       1.0  0.03460  0.13000  0.54370  1.0000
  H   H16       1.0  0.46540  0.63000  0.95630  1.0000
  C   C25       1.0  0.19150  0.67477  0.25298  1.0000
  C   C26       1.0  0.30850  0.17477  0.24702  1.0000
  C   C27       1.0  0.80850  0.32523  0.74702  1.0000
  C   C28       1.0  0.69150  0.82523  0.75298  1.0000
  H   H17       1.0  0.17280  0.71770  0.23220  1.0000
  H   H18       1.0  0.32720  0.21770  0.26780  1.0000
  H   H19       1.0  0.82720  0.28230  0.76780  1.0000
  H   H20       1.0  0.67280  0.78230  0.73220  1.0000
  C   C29       1.0  0.05030  0.95225  0.41340  1.0000
  C   C30       1.0  0.44970  0.45225  0.08660  1.0000
  C   C31       1.0  0.94970  0.04775  0.58660  1.0000
  C   C32       1.0  0.55030  0.54775  0.91340  1.0000
  C   C33       1.0  0.87970  0.03250  0.34866  1.0000
  C   C34       1.0  0.62030  0.53250  0.15134  1.0000
  C   C35       1.0  0.12030  0.96750  0.65134  1.0000
  C   C36       1.0  0.37970  0.46750  0.84866  1.0000
  C   C37       1.0  0.38960  0.39870  0.44550  1.0000
  C   C38       1.0  0.11040  0.89870  0.05450  1.0000
  C   C39       1.0  0.61040  0.60130  0.55450  1.0000
  C   C40       1.0  0.88960  0.10130  0.94550  1.0000
  H   H21       1.0  0.40730  0.38790  0.49990  1.0000
  H   H22       1.0  0.09270  0.88790  0.00010  1.0000
  H   H23       1.0  0.59270  0.61210  0.50010  1.0000
  H   H24       1.0  0.90730  0.11210  0.99990  1.0000
  C   C41       1.0  0.80570  0.93114  0.40918  1.0000
  C   C42       1.0  0.69430  0.43114  0.09082  1.0000
  C   C43       1.0  0.19430  0.06886  0.59082  1.0000
  C   C44       1.0  0.30570  0.56886  0.90918  1.0000
  C   C45       1.0  0.30340  0.60180  0.35779  1.0000
  C   C46       1.0  0.19660  0.10180  0.14221  1.0000
  C   C47       1.0  0.69660  0.39820  0.64221  1.0000
  C   C48       1.0  0.80340  0.89820  0.85779  1.0000
  H   H25       1.0  0.35640  0.59630  0.40880  1.0000
  H   H26       1.0  0.14360  0.09630  0.09120  1.0000
  H   H27       1.0  0.64360  0.40370  0.59120  1.0000
  H   H28       1.0  0.85640  0.90370  0.90880  1.0000
  C   C49       1.0  0.76750  0.14549  0.33020  1.0000
  C   C50       1.0  0.73250  0.64549  0.16980  1.0000
  C   C51       1.0  0.23250  0.85451  0.66980  1.0000
  C   C52       1.0  0.26750  0.35451  0.83020  1.0000
  H   H29       1.0  0.74130  0.14100  0.38050  1.0000
  H   H30       1.0  0.75870  0.64100  0.11950  1.0000
  H   H31       1.0  0.25870  0.85900  0.61950  1.0000
  H   H32       1.0  0.24130  0.35900  0.88050  1.0000
  C   C53       1.0  0.88500  0.10453  0.22780  1.0000
  C   C54       1.0  0.61500  0.60453  0.27220  1.0000
  C   C55       1.0  0.11500  0.89547  0.77220  1.0000
  C   C56       1.0  0.38500  0.39547  0.72780  1.0000
  H   H33       1.0  0.93890  0.07190  0.20820  1.0000
  H   H34       1.0  0.56110  0.57190  0.29180  1.0000
  H   H35       1.0  0.06110  0.92810  0.79180  1.0000
  H   H36       1.0  0.43890  0.42810  0.70820  1.0000
  C   C57       1.0  0.01790  0.01174  0.37297  1.0000
  C   C58       1.0  0.48210  0.51174  0.12703  1.0000
  C   C59       1.0  0.98210  0.98826  0.62703  1.0000
  C   C60       1.0  0.51790  0.48826  0.87297  1.0000
  H   H37       1.0  0.09000  0.03880  0.36150  1.0000
  H   H38       1.0  0.41000  0.53880  0.13850  1.0000
  H   H39       1.0  0.91000  0.96120  0.63850  1.0000
  H   H40       1.0  0.59000  0.46120  0.86150  1.0000
  C   C61       1.0  0.77400  0.99137  0.36920  1.0000
  C   C62       1.0  0.72600  0.49137  0.13080  1.0000
  C   C63       1.0  0.22600  0.00863  0.63080  1.0000
  C   C64       1.0  0.27400  0.50863  0.86920  1.0000
  H   H41       1.0  0.68120  0.00470  0.35580  1.0000
  H   H42       1.0  0.81880  0.50470  0.14420  1.0000
  H   H43       1.0  0.31880  0.99530  0.64420  1.0000
  H   H44       1.0  0.18120  0.49530  0.85580  1.0000
  C   C65       1.0  0.30580  0.47747  0.34109  1.0000
  C   C66       1.0  0.19420  0.97747  0.15891  1.0000
  C   C67       1.0  0.69420  0.52253  0.65891  1.0000
  C   C68       1.0  0.80580  0.02253  0.84109  1.0000
  C   C69       1.0  0.13680  0.61915  0.20896  1.0000
  C   C70       1.0  0.36320  0.11915  0.29104  1.0000
  C   C71       1.0  0.86320  0.38085  0.79104  1.0000
  C   C72       1.0  0.63680  0.88085  0.70896  1.0000
  C   C73       1.0  0.72900  0.20266  0.28460  1.0000
  C   C74       1.0  0.77100  0.70266  0.21540  1.0000
  C   C75       1.0  0.27100  0.79734  0.71540  1.0000
  C   C76       1.0  0.22900  0.29734  0.78460  1.0000
  H   H45       1.0  0.67680  0.23590  0.30430  1.0000
  H   H46       1.0  0.82320  0.73590  0.19570  1.0000
  H   H47       1.0  0.32320  0.76410  0.69570  1.0000
  H   H48       1.0  0.17680  0.26410  0.80430  1.0000
  C   C77       1.0  0.84670  0.16160  0.18310  1.0000
  C   C78       1.0  0.65330  0.66160  0.31690  1.0000
  C   C79       1.0  0.15330  0.83840  0.81690  1.0000
  C   C80       1.0  0.34670  0.33840  0.68310  1.0000
  H   H49       1.0  0.87500  0.16710  0.13360  1.0000
  H   H50       1.0  0.62500  0.66710  0.36640  1.0000
  H   H51       1.0  0.12500  0.83290  0.86640  1.0000
  H   H52       1.0  0.37500  0.33290  0.63360  1.0000
  C   C81       1.0  0.16960  0.55519  0.23897  1.0000
  C   C82       1.0  0.33040  0.05519  0.26103  1.0000
  C   C83       1.0  0.83040  0.44481  0.76103  1.0000
  C   C84       1.0  0.66960  0.94481  0.73897  1.0000
  H   H53       1.0  0.13370  0.51800  0.20900  1.0000
  H   H54       1.0  0.36630  0.01800  0.29100  1.0000
  H   H55       1.0  0.86630  0.48200  0.79100  1.0000
  H   H56       1.0  0.63370  0.98200  0.70900  1.0000
  C   C85       1.0  0.25520  0.54579  0.31295  1.0000
  C   C86       1.0  0.24480  0.04579  0.18705  1.0000
  C   C87       1.0  0.74480  0.45421  0.68705  1.0000
  C   C88       1.0  0.75520  0.95421  0.81295  1.0000
  C   C89       1.0  0.33170  0.46049  0.42120  1.0000
  C   C90       1.0  0.16830  0.96049  0.07880  1.0000
  C   C91       1.0  0.66830  0.53951  0.57880  1.0000
  C   C92       1.0  0.83170  0.03951  0.92120  1.0000
  H   H57       1.0  0.31030  0.49070  0.45930  1.0000
  H   H58       1.0  0.18970  0.99070  0.04070  1.0000
  H   H59       1.0  0.68970  0.50930  0.54070  1.0000
  H   H60       1.0  0.81030  0.00930  0.95930  1.0000
  C   C93       1.0  0.20090  0.93193  0.43813  1.0000
  C   C94       1.0  0.29910  0.43193  0.06187  1.0000
  C   C95       1.0  0.79910  0.06807  0.56187  1.0000
  C   C96       1.0  0.70090  0.56807  0.93813  1.0000
  C   C97       1.0  0.69130  0.88656  0.42983  1.0000
  C   C98       1.0  0.80870  0.38656  0.07017  1.0000
  C   C99       1.0  0.30870  0.11344  0.57017  1.0000
  C   C100      1.0  0.19130  0.61344  0.92983  1.0000
  C   C101      1.0  0.33910  0.72635  0.37332  1.0000
  C   C102      1.0  0.16090  0.22635  0.12668  1.0000
  C   C103      1.0  0.66090  0.27365  0.62668  1.0000
  C   C104      1.0  0.83910  0.77365  0.87332  1.0000
  C   C105      1.0  0.76770  0.21020  0.21070  1.0000
  C   C106      1.0  0.73230  0.71020  0.28930  1.0000
  C   C107      1.0  0.23230  0.78980  0.78930  1.0000
  C   C108      1.0  0.26770  0.28980  0.71070  1.0000
  H   H61       1.0  0.74040  0.24800  0.17970  1.0000
  H   H62       1.0  0.75960  0.74800  0.32030  1.0000
  H   H63       1.0  0.25960  0.75200  0.82030  1.0000
  H   H64       1.0  0.24040  0.25200  0.67970  1.0000
  C   C109      1.0  0.05090  0.62841  0.12734  1.0000
  C   C110      1.0  0.44910  0.12841  0.37266  1.0000
  C   C111      1.0  0.94910  0.37159  0.87266  1.0000
  C   C112      1.0  0.55090  0.87159  0.62734  1.0000
