data_image0
_chemical_formula_structural       Co6O32C8H4C4H4C24H4C8H4C12H4C4H4C8H4C4H4C4H4C4H4C8H4C8H4C4H4C4H4C4H4C4H4
_chemical_formula_sum              "Co6 O32 C112 H64"
_cell_length_a       9.49187
_cell_length_b       19.3641
_cell_length_c       17.1174
_cell_angle_alpha    90
_cell_angle_beta     101.939
_cell_angle_gamma    90

_space_group_name_H-M_alt    "P 1"
_space_group_IT_number       1

loop_
  _space_group_symop_operation_xyz
  'x, y, z'

loop_
  _atom_site_type_symbol
  _atom_site_label
  _atom_site_symmetry_multiplicity
  _atom_site_fract_x
  _atom_site_fract_y
  _atom_site_fract_z
  _atom_site_occupancy
  Co  Co1       1.0  0.05657  0.66578  0.53241  1.0000
  Co  Co2       1.0  0.44343  0.16578  0.96759  1.0000
  Co  Co3       1.0  0.94343  0.33422  0.46759  1.0000
  Co  Co4       1.0  0.55657  0.83422  0.03241  1.0000
  Co  Co5       1.0  0.00000  0.50000  0.50000  1.0000
  Co  Co6       1.0  0.50000  0.00000  0.00000  1.0000
  O   O1        1.0  0.25740  0.62850  0.54087  1.0000
  O   O2        1.0  0.24260  0.12850  0.95913  1.0000
  O   O3        1.0  0.74260  0.37150  0.45913  1.0000
  O   O4        1.0  0.75740  0.87150  0.04087  1.0000
  O   O5        1.0  0.93890  0.58798  0.56692  1.0000
  O   O6        1.0  0.56110  0.08798  0.93308  1.0000
  O   O7        1.0  0.06110  0.41202  0.43308  1.0000
  O   O8        1.0  0.43890  0.91202  0.06692  1.0000
  O   O9        1.0  0.79410  0.67747  0.55200  1.0000
  O   O10       1.0  0.70590  0.17747  0.94800  1.0000
  O   O11       1.0  0.20590  0.32253  0.44800  1.0000
  O   O12       1.0  0.29410  0.82253  0.05200  1.0000
  O   O13       1.0  0.61490  0.73693  0.06345  1.0000
  O   O14       1.0  0.88510  0.23693  0.43655  1.0000
  O   O15       1.0  0.38510  0.26307  0.93655  1.0000
  O   O16       1.0  0.11490  0.76307  0.56345  1.0000
  O   O17       1.0  0.20650  0.51708  0.55448  1.0000
  O   O18       1.0  0.29350  0.01708  0.94552  1.0000
  O   O19       1.0  0.79350  0.48292  0.44552  1.0000
  O   O20       1.0  0.70650  0.98292  0.05448  1.0000
  O   O21       1.0  0.00460  0.56673  0.40882  1.0000
  O   O22       1.0  0.49540  0.06673  0.09118  1.0000
  O   O23       1.0  0.99540  0.43327  0.59118  1.0000
  O   O24       1.0  0.50460  0.93327  0.90882  1.0000
  O   O25       1.0  0.65270  0.79239  0.17767  1.0000
  O   O26       1.0  0.84730  0.29239  0.32233  1.0000
  O   O27       1.0  0.34730  0.20761  0.82233  1.0000
  O   O28       1.0  0.15270  0.70761  0.67767  1.0000
  O   O29       1.0  0.96090  0.67871  0.41588  1.0000
  O   O30       1.0  0.53910  0.17871  0.08412  1.0000
  O   O31       1.0  0.03910  0.32129  0.58412  1.0000
  O   O32       1.0  0.46090  0.82129  0.91588  1.0000
  C   C1        1.0  0.44890  0.54889  0.58430  1.0000
  C   C2        1.0  0.05110  0.04889  0.91570  1.0000
  C   C3        1.0  0.55110  0.45111  0.41570  1.0000
  C   C4        1.0  0.94890  0.95111  0.08430  1.0000
  C   C5        1.0  0.81910  0.55501  0.26230  1.0000
  C   C6        1.0  0.68090  0.05501  0.23770  1.0000
  C   C7        1.0  0.18090  0.44499  0.73770  1.0000
  C   C8        1.0  0.31910  0.94499  0.76230  1.0000
  H   H1        1.0  0.85180  0.51500  0.29040  1.0000
  H   H2        1.0  0.64820  0.01500  0.20960  1.0000
  H   H3        1.0  0.14820  0.48500  0.70960  1.0000
  H   H4        1.0  0.35180  0.98500  0.79040  1.0000
  C   C9        1.0  0.73460  0.50948  0.62990  1.0000
  C   C10       1.0  0.76540  0.00948  0.87010  1.0000
  C   C11       1.0  0.26540  0.49052  0.37010  1.0000
  C   C12       1.0  0.23460  0.99052  0.12990  1.0000
  H   H5        1.0  0.83050  0.49610  0.64430  1.0000
  H   H6        1.0  0.66950  0.99610  0.85570  1.0000
  H   H7        1.0  0.16950  0.50390  0.35570  1.0000
  H   H8        1.0  0.33050  0.00390  0.14430  1.0000
  C   C13       1.0  0.62780  0.46776  0.65030  1.0000
  C   C14       1.0  0.87220  0.96776  0.84970  1.0000
  C   C15       1.0  0.37220  0.53224  0.34970  1.0000
  C   C16       1.0  0.12780  0.03224  0.15030  1.0000
  C   C17       1.0  0.29170  0.56650  0.55720  1.0000
  C   C18       1.0  0.20830  0.06650  0.94280  1.0000
  C   C19       1.0  0.70830  0.43350  0.44280  1.0000
  C   C20       1.0  0.79170  0.93350  0.05720  1.0000
  C   C21       1.0  0.81490  0.61567  0.56690  1.0000
  C   C22       1.0  0.68510  0.11567  0.93310  1.0000
  C   C23       1.0  0.18510  0.38433  0.43310  1.0000
  C   C24       1.0  0.31490  0.88433  0.06690  1.0000
  C   C25       1.0  0.73190  0.54978  0.18650  1.0000
  C   C26       1.0  0.76810  0.04978  0.31350  1.0000
  C   C27       1.0  0.26810  0.45022  0.81350  1.0000
  C   C28       1.0  0.23190  0.95022  0.68650  1.0000
  C   C29       1.0  0.69920  0.57080  0.58820  1.0000
  C   C30       1.0  0.80080  0.07080  0.91180  1.0000
  C   C31       1.0  0.30080  0.42920  0.41180  1.0000
  C   C32       1.0  0.19920  0.92920  0.08820  1.0000
  C   C33       1.0  0.57580  0.37040  0.17230  1.0000
  C   C34       1.0  0.92420  0.87040  0.32770  1.0000
  C   C35       1.0  0.42420  0.62960  0.82770  1.0000
  C   C36       1.0  0.07580  0.12960  0.67230  1.0000
  H   H9        1.0  0.54290  0.33900  0.20560  1.0000
  H   H10       1.0  0.95710  0.83900  0.29440  1.0000
  H   H11       1.0  0.45710  0.66100  0.79440  1.0000
  H   H12       1.0  0.04290  0.16100  0.70560  1.0000
  C   C37       1.0  0.72410  0.67455  0.17970  1.0000
  C   C38       1.0  0.77590  0.17455  0.32030  1.0000
  C   C39       1.0  0.27590  0.32545  0.82030  1.0000
  C   C40       1.0  0.22410  0.82545  0.67970  1.0000
  C   C41       1.0  0.63280  0.43270  0.20260  1.0000
  C   C42       1.0  0.86720  0.93270  0.29740  1.0000
  C   C43       1.0  0.36720  0.56730  0.79740  1.0000
  C   C44       1.0  0.13280  0.06730  0.70260  1.0000
  H   H13       1.0  0.64020  0.44240  0.25650  1.0000
  H   H14       1.0  0.85980  0.94240  0.24350  1.0000
  H   H15       1.0  0.35980  0.55760  0.74350  1.0000
  H   H16       1.0  0.14020  0.05760  0.75650  1.0000
  C   C45       1.0  0.85830  0.61891  0.29670  1.0000
  C   C46       1.0  0.64170  0.11891  0.20330  1.0000
  C   C47       1.0  0.14170  0.38109  0.70330  1.0000
  C   C48       1.0  0.35830  0.88109  0.79670  1.0000
  C   C49       1.0  0.66660  0.40310  0.69740  1.0000
  C   C50       1.0  0.83340  0.90310  0.80260  1.0000
  C   C51       1.0  0.33340  0.59690  0.30260  1.0000
  C   C52       1.0  0.16660  0.09690  0.19740  1.0000
  C   C53       1.0  0.68980  0.61060  0.14430  1.0000
  C   C54       1.0  0.81020  0.11060  0.35570  1.0000
  C   C55       1.0  0.31020  0.38940  0.85570  1.0000
  C   C56       1.0  0.18980  0.88940  0.64430  1.0000
  H   H17       1.0  0.63820  0.60830  0.09190  1.0000
  H   H18       1.0  0.86180  0.10830  0.40810  1.0000
  H   H19       1.0  0.36180  0.39170  0.90810  1.0000
  H   H20       1.0  0.13820  0.89170  0.59190  1.0000
  C   C57       1.0  0.55560  0.59130  0.56670  1.0000
  C   C58       1.0  0.94440  0.09130  0.93330  1.0000
  C   C59       1.0  0.44440  0.40870  0.43330  1.0000
  C   C60       1.0  0.05560  0.90870  0.06670  1.0000
  H   H21       1.0  0.53170  0.63310  0.54060  1.0000
  H   H22       1.0  0.96830  0.13310  0.95940  1.0000
  H   H23       1.0  0.46830  0.36690  0.45940  1.0000
  H   H24       1.0  0.03170  0.86690  0.04060  1.0000
  C   C61       1.0  0.67940  0.48150  0.15340  1.0000
  C   C62       1.0  0.82060  0.98150  0.34660  1.0000
  C   C63       1.0  0.32060  0.51850  0.84660  1.0000
  C   C64       1.0  0.17940  0.01850  0.65340  1.0000
  C   C65       1.0  0.48460  0.48740  0.62540  1.0000
  C   C66       1.0  0.01540  0.98740  0.87460  1.0000
  C   C67       1.0  0.51540  0.51260  0.37460  1.0000
  C   C68       1.0  0.98460  0.01260  0.12540  1.0000
  H   H25       1.0  0.41200  0.45910  0.63640  1.0000
  H   H26       1.0  0.08800  0.95910  0.86360  1.0000
  H   H27       1.0  0.58800  0.54090  0.36360  1.0000
  H   H28       1.0  0.91200  0.04090  0.13640  1.0000
  C   C69       1.0  0.62530  0.39200  0.76950  1.0000
  C   C70       1.0  0.87470  0.89200  0.73050  1.0000
  C   C71       1.0  0.37470  0.60800  0.23050  1.0000
  C   C72       1.0  0.12530  0.10800  0.26950  1.0000
  H   H29       1.0  0.57000  0.42520  0.78860  1.0000
  H   H30       1.0  0.93000  0.92520  0.71140  1.0000
  H   H31       1.0  0.43000  0.57480  0.21140  1.0000
  H   H32       1.0  0.07000  0.07480  0.28860  1.0000
  C   C73       1.0  0.61630  0.40100  0.04510  1.0000
  C   C74       1.0  0.88370  0.90100  0.45490  1.0000
  C   C75       1.0  0.38370  0.59900  0.95490  1.0000
  C   C76       1.0  0.11630  0.09900  0.54510  1.0000
  H   H33       1.0  0.61340  0.38950  0.99200  1.0000
  H   H34       1.0  0.88660  0.88950  0.50800  1.0000
  H   H35       1.0  0.38660  0.61050  0.00800  1.0000
  H   H36       1.0  0.11340  0.11050  0.49200  1.0000
  C   C77       1.0  0.74610  0.35170  0.66950  1.0000
  C   C78       1.0  0.75390  0.85170  0.83050  1.0000
  C   C79       1.0  0.25390  0.64830  0.33050  1.0000
  C   C80       1.0  0.24610  0.14830  0.16950  1.0000
  H   H37       1.0  0.77270  0.35700  0.62050  1.0000
  H   H38       1.0  0.72730  0.85700  0.87950  1.0000
  H   H39       1.0  0.22730  0.64300  0.37950  1.0000
  H   H40       1.0  0.27270  0.14300  0.12050  1.0000
  C   C81       1.0  0.66090  0.73930  0.13780  1.0000
  C   C82       1.0  0.83910  0.23930  0.36220  1.0000
  C   C83       1.0  0.33910  0.26070  0.86220  1.0000
  C   C84       1.0  0.16090  0.76070  0.63780  1.0000
  C   C85       1.0  0.80950  0.67871  0.25540  1.0000
  C   C86       1.0  0.69050  0.17871  0.24460  1.0000
  C   C87       1.0  0.19050  0.32129  0.74460  1.0000
  C   C88       1.0  0.30950  0.82129  0.75540  1.0000
  H   H41       1.0  0.83430  0.72160  0.27860  1.0000
  H   H42       1.0  0.66570  0.22160  0.22140  1.0000
  H   H43       1.0  0.16570  0.27840  0.72140  1.0000
  H   H44       1.0  0.33430  0.77840  0.77860  1.0000
  C   C89       1.0  0.94720  0.62167  0.37970  1.0000
  C   C90       1.0  0.55280  0.12167  0.12030  1.0000
  C   C91       1.0  0.05280  0.37833  0.62030  1.0000
  C   C92       1.0  0.44720  0.87833  0.87970  1.0000
  C   C93       1.0  0.56730  0.35450  0.09410  1.0000
  C   C94       1.0  0.93270  0.85450  0.40590  1.0000
  C   C95       1.0  0.43270  0.64550  0.90590  1.0000
  C   C96       1.0  0.06730  0.14550  0.59410  1.0000
  H   H45       1.0  0.52860  0.31240  0.07390  1.0000
  H   H46       1.0  0.97140  0.81240  0.42610  1.0000
  H   H47       1.0  0.47140  0.68760  0.92610  1.0000
  H   H48       1.0  0.02860  0.18760  0.57390  1.0000
  C   C97       1.0  0.66470  0.33300  0.81320  1.0000
  C   C98       1.0  0.83530  0.83300  0.68680  1.0000
  C   C99       1.0  0.33530  0.66700  0.18680  1.0000
  C   C100      1.0  0.16470  0.16700  0.31320  1.0000
  H   H49       1.0  0.63540  0.32650  0.86130  1.0000
  H   H50       1.0  0.86460  0.82650  0.63870  1.0000
  H   H51       1.0  0.36460  0.67350  0.13870  1.0000
  H   H52       1.0  0.13540  0.17350  0.36130  1.0000
  C   C101      1.0  0.67010  0.46490  0.07400  1.0000
  C   C102      1.0  0.82990  0.96490  0.42600  1.0000
  C   C103      1.0  0.32990  0.53510  0.92600  1.0000
  C   C104      1.0  0.17010  0.03510  0.57400  1.0000
  H   H53       1.0  0.69990  0.49650  0.03990  1.0000
  H   H54       1.0  0.80010  0.99650  0.46010  1.0000
  H   H55       1.0  0.30010  0.50350  0.96010  1.0000
  H   H56       1.0  0.19990  0.00350  0.53990  1.0000
  C   C105      1.0  0.78590  0.29270  0.71470  1.0000
  C   C106      1.0  0.71410  0.79270  0.78530  1.0000
  C   C107      1.0  0.21410  0.70730  0.28530  1.0000
  C   C108      1.0  0.28590  0.20730  0.21470  1.0000
  H   H57       1.0  0.84000  0.25890  0.69590  1.0000
  H   H58       1.0  0.66000  0.75890  0.80410  1.0000
  H   H59       1.0  0.16000  0.74110  0.30410  1.0000
  H   H60       1.0  0.34000  0.24110  0.19590  1.0000
  C   C109      1.0  0.74660  0.28370  0.78640  1.0000
  C   C110      1.0  0.75340  0.78370  0.71360  1.0000
  C   C111      1.0  0.25340  0.71630  0.21360  1.0000
  C   C112      1.0  0.24660  0.21630  0.28640  1.0000
  H   H61       1.0  0.77540  0.24440  0.81680  1.0000
  H   H62       1.0  0.72460  0.74440  0.68320  1.0000
  H   H63       1.0  0.22460  0.75560  0.18320  1.0000
  H   H64       1.0  0.27540  0.25560  0.31680  1.0000
