data_image0
_chemical_formula_structural       Zn10O56N8C4H2C4H2C4H2C8H2C4H2C4H2C8H2C4H2C4H2C8H2C4H2C4H2C4H10
_chemical_formula_sum              "Zn10 O56 N8 C64 H34"
_cell_length_a       12.2062
_cell_length_b       14.1995
_cell_length_c       15.5626
_cell_angle_alpha    65.057
_cell_angle_beta     82.427
_cell_angle_gamma    66.15

_space_group_name_H-M_alt    "P 1"
_space_group_IT_number       1

loop_
  _space_group_symop_operation_xyz
  'x, y, z'

loop_
  _atom_site_type_symbol
  _atom_site_label
  _atom_site_symmetry_multiplicity
  _atom_site_fract_x
  _atom_site_fract_y
  _atom_site_fract_z
  _atom_site_occupancy
  Zn  Zn1       1.0  0.80441  0.06861  0.13238  1.0000
  Zn  Zn2       1.0  0.19559  0.93139  0.86762  1.0000
  Zn  Zn3       1.0  0.63498  0.16064  0.90154  1.0000
  Zn  Zn4       1.0  0.36502  0.83936  0.09846  1.0000
  Zn  Zn5       1.0  0.92754  0.04997  0.90156  1.0000
  Zn  Zn6       1.0  0.07246  0.95003  0.09844  1.0000
  Zn  Zn7       1.0  0.57041  0.44203  0.60055  1.0000
  Zn  Zn8       1.0  0.42959  0.55797  0.39945  1.0000
  Zn  Zn9       1.0  0.53030  0.29164  0.47516  1.0000
  Zn  Zn10      1.0  0.46970  0.70836  0.52484  1.0000
  O   O1        1.0  0.85803  0.10883  0.22075  1.0000
  O   O2        1.0  0.14197  0.89117  0.77925  1.0000
  O   O3        1.0  0.04137  0.98258  0.22027  1.0000
  O   O4        1.0  0.95863  0.01742  0.77973  1.0000
  O   O5        1.0  0.33405  0.84598  0.46697  1.0000
  O   O6        1.0  0.66595  0.15402  0.53303  1.0000
  O   O7        1.0  0.33690  0.95488  0.53360  1.0000
  O   O8        1.0  0.66310  0.04512  0.46640  1.0000
  O   O9        1.0  0.92238  0.23614  0.53983  1.0000
  O   O10       1.0  0.07762  0.76386  0.46017  1.0000
  O   O11       1.0  0.81267  0.32589  0.40965  1.0000
  O   O12       1.0  0.18733  0.67411  0.59035  1.0000
  O   O13       1.0  0.80497  0.91900  0.20665  1.0000
  O   O14       1.0  0.19503  0.08100  0.79335  1.0000
  O   O15       1.0  0.98494  0.83368  0.15938  1.0000
  O   O16       1.0  0.01506  0.16632  0.84062  1.0000
  O   O17       1.0  0.61922  0.70241  0.46060  1.0000
  O   O18       1.0  0.38078  0.29759  0.53940  1.0000
  O   O19       1.0  0.70154  0.51363  0.52526  1.0000
  O   O20       1.0  0.29846  0.48637  0.47474  1.0000
  O   O21       1.0  0.10803  0.32964  0.43040  1.0000
  O   O22       1.0  0.89197  0.67036  0.56960  1.0000
  O   O23       1.0  0.18256  0.42777  0.31147  1.0000
  O   O24       1.0  0.81744  0.57223  0.68853  1.0000
  O   O25       1.0  0.53754  0.26392  0.96033  1.0000
  O   O26       1.0  0.46246  0.73608  0.03967  1.0000
  O   O27       1.0  0.64082  0.17675  0.09789  1.0000
  O   O28       1.0  0.35918  0.82325  0.90211  1.0000
  O   O29       1.0  0.50456  0.32699  0.34127  1.0000
  O   O30       1.0  0.49544  0.67301  0.65873  1.0000
  O   O31       1.0  0.41485  0.51531  0.28881  1.0000
  O   O32       1.0  0.58515  0.48469  0.71119  1.0000
  O   O33       1.0  0.14570  0.68908  0.00450  1.0000
  O   O34       1.0  0.85430  0.31092  0.99550  1.0000
  O   O35       1.0  0.18300  0.61140  0.90668  1.0000
  O   O36       1.0  0.81700  0.38860  0.09332  1.0000
  O   O37       1.0  0.43432  0.38941  0.67955  1.0000
  O   O38       1.0  0.56568  0.61059  0.32045  1.0000
  O   O39       1.0  0.54462  0.21722  0.78206  1.0000
  O   O40       1.0  0.45538  0.78278  0.21794  1.0000
  O   O41       1.0  0.34386  0.99420  0.01820  1.0000
  O   O42       1.0  0.65614  0.00580  0.98180  1.0000
  O   O43       1.0  0.15126  0.07312  0.04462  1.0000
  O   O44       1.0  0.84874  0.92688  0.95538  1.0000
  O   O45       1.0  0.96450  0.49040  0.90750  1.0000
  O   O46       1.0  0.03550  0.50960  0.09250  1.0000
  O   O47       1.0  0.03493  0.58086  0.78128  1.0000
  O   O48       1.0  0.96507  0.41914  0.21872  1.0000
  O   O49       1.0  0.91329  0.07717  0.02947  1.0000
  O   O50       1.0  0.08671  0.92283  0.97053  1.0000
  O   O51       1.0  0.77642  0.18430  0.84983  1.0000
  O   O52       1.0  0.22358  0.81570  0.15017  1.0000
  O   O53       1.0  0.71821  0.29436  0.65566  1.0000
  O   O54       1.0  0.28179  0.70564  0.34434  1.0000
  O   O55       1.0  0.56786  0.40999  0.48023  1.0000
  O   O56       1.0  0.43214  0.59001  0.51977  1.0000
  N   N1        1.0  0.89950  0.24848  0.46057  1.0000
  N   N2        1.0  0.10050  0.75152  0.53943  1.0000
  N   N3        1.0  0.10467  0.41923  0.36864  1.0000
  N   N4        1.0  0.89533  0.58077  0.63136  1.0000
  N   N5        1.0  0.20580  0.61405  0.97851  1.0000
  N   N6        1.0  0.79420  0.38595  0.02149  1.0000
  N   N7        1.0  0.04190  0.49514  0.85004  1.0000
  N   N8        1.0  0.95810  0.50486  0.14996  1.0000
  C   C1        1.0  0.01070  0.07250  0.32247  1.0000
  C   C2        1.0  0.98930  0.92750  0.67753  1.0000
  C   C3        1.0  0.12490  0.00220  0.36517  1.0000
  C   C4        1.0  0.87510  0.99780  0.63483  1.0000
  H   H1        1.0  0.17410  0.94640  0.34480  1.0000
  H   H2        1.0  0.82590  0.05360  0.65520  1.0000
  C   C5        1.0  0.16680  0.01360  0.43740  1.0000
  C   C6        1.0  0.83320  0.98640  0.56260  1.0000
  C   C7        1.0  0.09390  0.09560  0.46865  1.0000
  C   C8        1.0  0.90610  0.90440  0.53135  1.0000
  H   H3        1.0  0.11990  0.10420  0.51740  1.0000
  H   H4        1.0  0.88010  0.89580  0.48260  1.0000
  C   C9        1.0  0.98040  0.16460  0.42499  1.0000
  C   C10       1.0  0.01960  0.83540  0.57501  1.0000
  C   C11       1.0  0.93730  0.15580  0.35250  1.0000
  C   C12       1.0  0.06270  0.84420  0.64750  1.0000
  H   H5        1.0  0.86110  0.20430  0.32450  1.0000
  H   H6        1.0  0.13890  0.79570  0.67550  1.0000
  C   C13       1.0  0.96740  0.05350  0.24813  1.0000
  C   C14       1.0  0.03260  0.94650  0.75187  1.0000
  C   C15       1.0  0.28990  0.93290  0.48437  1.0000
  C   C16       1.0  0.71010  0.06710  0.51563  1.0000
  C   C17       1.0  0.90220  0.72230  0.28543  1.0000
  C   C18       1.0  0.09780  0.27770  0.71457  1.0000
  C   C19       1.0  0.80760  0.71500  0.34407  1.0000
  C   C20       1.0  0.19240  0.28500  0.65593  1.0000
  H   H7        1.0  0.74200  0.78070  0.33840  1.0000
  H   H8        1.0  0.25800  0.21930  0.66160  1.0000
  C   C21       1.0  0.80820  0.61251  0.41097  1.0000
  C   C22       1.0  0.19180  0.38749  0.58903  1.0000
  C   C23       1.0  0.90670  0.51380  0.42035  1.0000
  C   C24       1.0  0.09330  0.48620  0.57965  1.0000
  H   H9        1.0  0.90900  0.44400  0.46470  1.0000
  H   H10       1.0  0.09100  0.55600  0.53530  1.0000
  C   C25       1.0  0.00090  0.52280  0.36158  1.0000
  C   C26       1.0  0.99910  0.47720  0.63842  1.0000
  C   C27       1.0  0.00150  0.62410  0.29444  1.0000
  C   C28       1.0  0.99850  0.37590  0.70556  1.0000
  H   H11       1.0  0.06640  0.62690  0.25620  1.0000
  H   H12       1.0  0.93360  0.37310  0.74380  1.0000
  C   C29       1.0  0.89880  0.83320  0.21135  1.0000
  C   C30       1.0  0.10120  0.16680  0.78865  1.0000
  C   C31       1.0  0.70160  0.60750  0.47127  1.0000
  C   C32       1.0  0.29840  0.39250  0.52873  1.0000
  C   C33       1.0  0.47810  0.34810  0.06927  1.0000
  C   C34       1.0  0.52190  0.65190  0.93073  1.0000
  C   C35       1.0  0.50060  0.34570  0.15546  1.0000
  C   C36       1.0  0.49940  0.65430  0.84454  1.0000
  H   H13       1.0  0.56510  0.28580  0.19490  1.0000
  H   H14       1.0  0.43490  0.71420  0.80510  1.0000
  C   C37       1.0  0.42860  0.43080  0.18381  1.0000
  C   C38       1.0  0.57140  0.56920  0.81619  1.0000
  C   C39       1.0  0.33220  0.52050  0.12464  1.0000
  C   C40       1.0  0.66780  0.47950  0.87536  1.0000
  H   H15       1.0  0.28380  0.57930  0.14180  1.0000
  H   H16       1.0  0.71620  0.42070  0.85820  1.0000
  C   C41       1.0  0.31000  0.52050  0.03988  1.0000
  C   C42       1.0  0.69000  0.47950  0.96012  1.0000
  C   C43       1.0  0.38100  0.43660  0.01044  1.0000
  C   C44       1.0  0.61900  0.56340  0.98956  1.0000
  H   H17       1.0  0.36440  0.43910  0.95270  1.0000
  H   H18       1.0  0.63560  0.56090  0.04730  1.0000
  C   C45       1.0  0.45060  0.42520  0.27910  1.0000
  C   C46       1.0  0.54940  0.57480  0.72090  1.0000
  C   C47       1.0  0.55930  0.25600  0.04000  1.0000
  C   C48       1.0  0.44070  0.74400  0.96000  1.0000
  C   C49       1.0  0.34210  0.30103  0.81580  1.0000
  C   C50       1.0  0.65790  0.69897  0.18420  1.0000
  C   C51       1.0  0.34310  0.19790  0.88379  1.0000
  C   C52       1.0  0.65690  0.80210  0.11621  1.0000
  H   H19       1.0  0.41030  0.13250  0.89170  1.0000
  H   H20       1.0  0.58970  0.86750  0.10830  1.0000
  C   C53       1.0  0.24600  0.19100  0.93985  1.0000
  C   C54       1.0  0.75400  0.80900  0.06015  1.0000
  C   C55       1.0  0.14660  0.28940  0.93011  1.0000
  C   C56       1.0  0.85340  0.71060  0.06989  1.0000
  H   H21       1.0  0.08090  0.28690  0.96740  1.0000
  H   H22       1.0  0.91910  0.71310  0.03260  1.0000
  C   C57       1.0  0.14870  0.39080  0.86327  1.0000
  C   C58       1.0  0.85130  0.60920  0.13673  1.0000
  C   C59       1.0  0.24330  0.39940  0.80487  1.0000
  C   C60       1.0  0.75670  0.60060  0.19513  1.0000
  H   H23       1.0  0.24060  0.46890  0.75970  1.0000
  H   H24       1.0  0.75940  0.53110  0.24030  1.0000
  C   C61       1.0  0.44790  0.30405  0.75408  1.0000
  C   C62       1.0  0.55210  0.69595  0.24592  1.0000
  C   C63       1.0  0.24520  0.07790  0.00664  1.0000
  C   C64       1.0  0.75480  0.92210  0.99336  1.0000
  H   H25       1.0  0.92000  0.12600  0.01400  1.0000
  H   H26       1.0  0.08000  0.87400  0.98600  1.0000
  H   H27       1.0  0.78100  0.21800  0.85200  1.0000
  H   H28       1.0  0.21900  0.78200  0.14800  1.0000
  H   H29       1.0  0.73700  0.25800  0.70700  1.0000
  H   H30       1.0  0.26300  0.74200  0.29300  1.0000
  H   H31       1.0  0.62300  0.40800  0.46200  1.0000
  H   H32       1.0  0.37700  0.59200  0.53800  1.0000
  H   H33       1.0  0.77600  0.28800  0.62800  1.0000
  H   H34       1.0  0.22400  0.71200  0.37200  1.0000
