data_image0
_chemical_formula_structural       CoO8C10O4H10
_chemical_formula_sum              "Co1 O12 C10 H10"
_cell_length_a       6.864
_cell_length_b       10
_cell_length_c       10.932
_cell_angle_alpha    93
_cell_angle_beta     104.86
_cell_angle_gamma    103.59

_space_group_name_H-M_alt    "P 1"
_space_group_IT_number       1

loop_
  _space_group_symop_operation_xyz
  'x, y, z'

loop_
  _atom_site_type_symbol
  _atom_site_label
  _atom_site_symmetry_multiplicity
  _atom_site_fract_x
  _atom_site_fract_y
  _atom_site_fract_z
  _atom_site_occupancy
  Co  Co1       1.0  0.50000  0.00000  0.00000  1.0000
  O   O1        1.0  0.34100  0.97910  0.80730  1.0000
  O   O2        1.0  0.65900  0.02090  0.19270  1.0000
  O   O3        1.0  0.46740  0.18700  0.75320  1.0000
  O   O4        1.0  0.53260  0.81300  0.24680  1.0000
  O   O5        1.0  0.97680  0.09660  0.82170  1.0000
  O   O6        1.0  0.02320  0.90340  0.17830  1.0000
  O   O7        1.0  0.77540  0.88260  0.75730  1.0000
  O   O8        1.0  0.22460  0.11740  0.24270  1.0000
  C   C1        1.0  0.16070  0.03870  0.61290  1.0000
  C   C2        1.0  0.83930  0.96130  0.38710  1.0000
  C   C3        1.0  0.95400  0.99130  0.61690  1.0000
  C   C4        1.0  0.04600  0.00870  0.38310  1.0000
  C   C5        1.0  0.20540  0.04810  0.49600  1.0000
  C   C6        1.0  0.79460  0.95190  0.50400  1.0000
  C   C7        1.0  0.33740  0.07220  0.73380  1.0000
  C   C8        1.0  0.66260  0.92780  0.26620  1.0000
  C   C9        1.0  0.89900  0.98930  0.74240  1.0000
  C   C10       1.0  0.10100  0.01070  0.25760  1.0000
  O   O9        1.0  0.73540  0.16860  0.97440  1.0000
  O   O10       1.0  0.26460  0.83140  0.02560  1.0000
  O   O11       1.0  0.32670  0.14060  0.02930  1.0000
  O   O12       1.0  0.67330  0.85940  0.97070  1.0000
  H   H1        1.0  0.35190  0.07400  0.49430  1.0000
  H   H2        1.0  0.64810  0.92600  0.50570  1.0000
  H   H3        1.0  0.83040  0.13880  0.95170  1.0000
  H   H4        1.0  0.16960  0.86120  0.04830  1.0000
  H   H5        1.0  0.68720  0.20420  0.92030  1.0000
  H   H6        1.0  0.31280  0.79580  0.07970  1.0000
  H   H7        1.0  0.21970  0.13370  0.97190  1.0000
  H   H8        1.0  0.78030  0.86630  0.02810  1.0000
  H   H9        1.0  0.28130  0.12940  0.08980  1.0000
  H   H10       1.0  0.71870  0.87060  0.91020  1.0000
