data_image0
_chemical_formula_structural       Ag2C2H2C2H2C4H2C2H2C2H4C2H4C4H2C2H2C2H2C2H2C4H2C2H2C6N4O8S2
_chemical_formula_sum              "Ag2 C36 H28 N4 O8 S2"
_cell_length_a       11.415
_cell_length_b       17.3038
_cell_length_c       9.3802
_cell_angle_alpha    90
_cell_angle_beta     104.701
_cell_angle_gamma    90

_space_group_name_H-M_alt    "P 1"
_space_group_IT_number       1

loop_
  _space_group_symop_operation_xyz
  'x, y, z'

loop_
  _atom_site_type_symbol
  _atom_site_label
  _atom_site_symmetry_multiplicity
  _atom_site_fract_x
  _atom_site_fract_y
  _atom_site_fract_z
  _atom_site_occupancy
  Ag  Ag1       1.0  0.07394  0.46122  0.12248  1.0000
  Ag  Ag2       1.0  0.07394  0.53878  0.62248  1.0000
  C   C1        1.0  0.27900  0.40190  0.99410  1.0000
  C   C2        1.0  0.27900  0.59810  0.49410  1.0000
  H   H1        1.0  0.25770  0.35490  0.02850  1.0000
  H   H2        1.0  0.25770  0.64510  0.52850  1.0000
  C   C3        1.0  0.37610  0.40450  0.92990  1.0000
  C   C4        1.0  0.37610  0.59550  0.42990  1.0000
  H   H3        1.0  0.41880  0.35970  0.92160  1.0000
  H   H4        1.0  0.41880  0.64030  0.42160  1.0000
  C   C5        1.0  0.40880  0.47310  0.87900  1.0000
  C   C6        1.0  0.40880  0.52690  0.37900  1.0000
  C   C7        1.0  0.34270  0.53790  0.89390  1.0000
  C   C8        1.0  0.34270  0.46210  0.39390  1.0000
  H   H5        1.0  0.36250  0.58580  0.86150  1.0000
  H   H6        1.0  0.36250  0.41420  0.36150  1.0000
  C   C9        1.0  0.24810  0.53080  0.95680  1.0000
  C   C10       1.0  0.24810  0.46920  0.45680  1.0000
  H   H7        1.0  0.20370  0.57500  0.96450  1.0000
  H   H8        1.0  0.20370  0.42500  0.46450  1.0000
  C   C11       1.0  0.51640  0.47820  0.81020  1.0000
  C   C12       1.0  0.51640  0.52180  0.31020  1.0000
  H   H9        1.0  0.51280  0.43580  0.74150  1.0000
  H   H10       1.0  0.51280  0.56420  0.24150  1.0000
  H   H11       1.0  0.51200  0.52620  0.75570  1.0000
  H   H12       1.0  0.51200  0.47380  0.25570  1.0000
  C   C13       1.0  0.63490  0.47480  0.92780  1.0000
  C   C14       1.0  0.63490  0.52520  0.42780  1.0000
  H   H13       1.0  0.64270  0.42460  0.97530  1.0000
  H   H14       1.0  0.64270  0.57540  0.47530  1.0000
  H   H15       1.0  0.63460  0.51380  0.00200  1.0000
  H   H16       1.0  0.63460  0.48620  0.50200  1.0000
  C   C15       1.0  0.74320  0.48830  0.86280  1.0000
  C   C16       1.0  0.74320  0.51170  0.36280  1.0000
  C   C17       1.0  0.81550  0.42930  0.83930  1.0000
  C   C18       1.0  0.81550  0.57070  0.33930  1.0000
  H   H17       1.0  0.80210  0.37920  0.86740  1.0000
  H   H18       1.0  0.80210  0.62080  0.36740  1.0000
  C   C19       1.0  0.90860  0.44420  0.77380  1.0000
  C   C20       1.0  0.90860  0.55580  0.27380  1.0000
  H   H19       1.0  0.95690  0.40320  0.75920  1.0000
  H   H20       1.0  0.95690  0.59680  0.25920  1.0000
  C   C21       1.0  0.86060  0.57160  0.75240  1.0000
  C   C22       1.0  0.86060  0.42840  0.25240  1.0000
  H   H21       1.0  0.87370  0.62110  0.72070  1.0000
  H   H22       1.0  0.87370  0.37890  0.22070  1.0000
  C   C23       1.0  0.76800  0.56100  0.81960  1.0000
  C   C24       1.0  0.76800  0.43900  0.31960  1.0000
  H   H23       1.0  0.72210  0.60300  0.83570  1.0000
  H   H24       1.0  0.72210  0.39700  0.33570  1.0000
  C   C25       1.0  0.11780  0.27450  0.36460  1.0000
  C   C26       1.0  0.11780  0.72550  0.86460  1.0000
  C   C27       1.0  0.07150  0.29160  0.48140  1.0000
  C   C28       1.0  0.07150  0.70840  0.98140  1.0000
  H   H25       1.0  0.98970  0.30060  0.47310  1.0000
  H   H26       1.0  0.98970  0.69940  0.97310  1.0000
  C   C29       1.0  0.28870  0.27290  0.55690  1.0000
  C   C30       1.0  0.28870  0.72710  0.05690  1.0000
  H   H27       1.0  0.37000  0.26760  0.60610  1.0000
  H   H28       1.0  0.37000  0.73240  0.10610  1.0000
  C   C31       1.0  0.24630  0.26400  0.40890  1.0000
  C   C32       1.0  0.24630  0.73600  0.90890  1.0000
  C   C33       1.0  0.04070  0.27200  0.21000  1.0000
  C   C34       1.0  0.04070  0.72800  0.71000  1.0000
  C   C35       1.0  0.32440  0.24000  0.30990  1.0000
  C   C36       1.0  0.32440  0.76000  0.80990  1.0000
  N   N1        1.0  0.21510  0.46540  0.00770  1.0000
  N   N2        1.0  0.21510  0.53460  0.50770  1.0000
  N   N3        1.0  0.93280  0.51490  0.73010  1.0000
  N   N4        1.0  0.93280  0.48510  0.23010  1.0000
  O   O1        1.0  0.06860  0.31415  0.11690  1.0000
  O   O2        1.0  0.06860  0.68585  0.61690  1.0000
  O   O3        1.0  0.94990  0.22810  0.18610  1.0000
  O   O4        1.0  0.94990  0.77190  0.68610  1.0000
  O   O5        1.0  0.28170  0.19430  0.21040  1.0000
  O   O6        1.0  0.28170  0.80570  0.71040  1.0000
  O   O7        1.0  0.42850  0.26730  0.33760  1.0000
  O   O8        1.0  0.42850  0.73270  0.83760  1.0000
  S   S1        1.0  0.17910  0.29462  0.64327  1.0000
  S   S2        1.0  0.17910  0.70538  0.14327  1.0000
