data_image0
_chemical_formula_structural       Zn4O24C4H4C4H4C4H4
_chemical_formula_sum              "Zn4 O24 C12 H12"
_cell_length_a       8.61779
_cell_length_b       7.73073
_cell_length_c       11.5005
_cell_angle_alpha    90
_cell_angle_beta     90
_cell_angle_gamma    90

_space_group_name_H-M_alt    "P 1"
_space_group_IT_number       1

loop_
  _space_group_symop_operation_xyz
  'x, y, z'

loop_
  _atom_site_type_symbol
  _atom_site_label
  _atom_site_symmetry_multiplicity
  _atom_site_fract_x
  _atom_site_fract_y
  _atom_site_fract_z
  _atom_site_occupancy
  Zn  Zn1       1.0  0.02908  0.99900  0.17014  1.0000
  Zn  Zn2       1.0  0.97092  0.00100  0.67014  1.0000
  Zn  Zn3       1.0  0.47092  0.49900  0.67014  1.0000
  Zn  Zn4       1.0  0.52908  0.50100  0.17014  1.0000
  O   O1        1.0  0.05646  0.14109  0.01494  1.0000
  O   O2        1.0  0.94354  0.85891  0.51494  1.0000
  O   O3        1.0  0.44354  0.64109  0.51494  1.0000
  O   O4        1.0  0.55646  0.35891  0.01494  1.0000
  O   O5        1.0  0.24369  0.07861  0.24128  1.0000
  O   O6        1.0  0.75631  0.92139  0.74128  1.0000
  O   O7        1.0  0.25631  0.57861  0.74128  1.0000
  O   O8        1.0  0.74369  0.42139  0.24128  1.0000
  O   O9        1.0  0.81217  0.92437  0.10473  1.0000
  O   O10       1.0  0.18783  0.07563  0.60473  1.0000
  O   O11       1.0  0.68783  0.42437  0.60473  1.0000
  O   O12       1.0  0.31217  0.57563  0.10473  1.0000
  O   O13       1.0  0.43678  0.26947  0.23969  1.0000
  O   O14       1.0  0.56322  0.73053  0.73969  1.0000
  O   O15       1.0  0.06322  0.76947  0.73969  1.0000
  O   O16       1.0  0.93678  0.23053  0.23969  1.0000
  O   O17       1.0  0.01323  0.13491  0.82493  1.0000
  O   O18       1.0  0.98677  0.86509  0.32493  1.0000
  O   O19       1.0  0.48677  0.63491  0.32493  1.0000
  O   O20       1.0  0.51323  0.36509  0.82493  1.0000
  O   O21       1.0  0.62296  0.73014  0.10218  1.0000
  O   O22       1.0  0.37704  0.26986  0.60218  1.0000
  O   O23       1.0  0.87704  0.23014  0.60218  1.0000
  O   O24       1.0  0.12296  0.76986  0.10218  1.0000
  C   C1        1.0  0.03280  0.06170  0.92047  1.0000
  C   C2        1.0  0.96720  0.93830  0.42047  1.0000
  C   C3        1.0  0.46720  0.56170  0.42047  1.0000
  C   C4        1.0  0.53280  0.43830  0.92047  1.0000
  H   H1        1.0  0.02990  0.94150  0.92230  1.0000
  H   H2        1.0  0.97010  0.05850  0.42230  1.0000
  H   H3        1.0  0.47010  0.44150  0.42230  1.0000
  H   H4        1.0  0.52990  0.55850  0.92230  1.0000
  C   C5        1.0  0.31320  0.20800  0.19965  1.0000
  C   C6        1.0  0.68680  0.79200  0.69965  1.0000
  C   C7        1.0  0.18680  0.70800  0.69965  1.0000
  C   C8        1.0  0.81320  0.29200  0.19965  1.0000
  H   H5        1.0  0.26990  0.26140  0.13490  1.0000
  H   H6        1.0  0.73010  0.73860  0.63490  1.0000
  H   H7        1.0  0.23010  0.76140  0.63490  1.0000
  H   H8        1.0  0.76990  0.23860  0.13490  1.0000
  C   C9        1.0  0.75620  0.78120  0.13241  1.0000
  C   C10       1.0  0.24380  0.21880  0.63241  1.0000
  C   C11       1.0  0.74380  0.28120  0.63241  1.0000
  C   C12       1.0  0.25620  0.71880  0.13241  1.0000
  H   H9        1.0  0.81630  0.70770  0.17800  1.0000
  H   H10       1.0  0.18370  0.29230  0.67800  1.0000
  H   H11       1.0  0.68370  0.20770  0.67800  1.0000
  H   H12       1.0  0.31630  0.79230  0.17800  1.0000
