data_image0
_chemical_formula_structural       Cu2S2O14N12C8H4C2H6C2H6C2H2C2H2C8H4C2H6C2H6C2H2C2H2C4H2C4H2C4H2C4
_chemical_formula_sum              "Cu2 S2 O14 N12 C48 H46"
_cell_length_a       9.797
_cell_length_b       14.1459
_cell_length_c       15.782
_cell_angle_alpha    106.273
_cell_angle_beta     100.855
_cell_angle_gamma    105.968

_space_group_name_H-M_alt    "P 1"
_space_group_IT_number       1

loop_
  _space_group_symop_operation_xyz
  'x, y, z'

loop_
  _atom_site_type_symbol
  _atom_site_label
  _atom_site_symmetry_multiplicity
  _atom_site_fract_x
  _atom_site_fract_y
  _atom_site_fract_z
  _atom_site_occupancy
  Cu  Cu1       1.0  0.80477  0.89383  0.92725  1.0000
  Cu  Cu2       1.0  0.19523  0.10617  0.07275  1.0000
  S   S1        1.0  0.97812  0.48261  0.70475  1.0000
  S   S2        1.0  0.02188  0.51739  0.29525  1.0000
  O   O1        1.0  0.94370  0.85018  0.86639  1.0000
  O   O2        1.0  0.05630  0.14982  0.13361  1.0000
  O   O3        1.0  0.16640  0.95440  0.96457  1.0000
  O   O4        1.0  0.83360  0.04560  0.03543  1.0000
  O   O5        1.0  0.59440  0.84864  0.92721  1.0000
  O   O6        1.0  0.40560  0.15136  0.07279  1.0000
  O   O7        1.0  0.56810  0.70540  0.81173  1.0000
  O   O8        1.0  0.43190  0.29460  0.18827  1.0000
  O   O9        1.0  0.87170  0.45680  0.75497  1.0000
  O   O10       1.0  0.12830  0.54320  0.24503  1.0000
  O   O11       1.0  0.06490  0.41491  0.69197  1.0000
  O   O12       1.0  0.93510  0.58509  0.30803  1.0000
  O   O13       1.0  0.90690  0.49310  0.61876  1.0000
  O   O14       1.0  0.09310  0.50690  0.38124  1.0000
  N   N1        1.0  0.74550  0.01320  0.71910  1.0000
  N   N2        1.0  0.25450  0.98680  0.28090  1.0000
  N   N3        1.0  0.66350  0.05710  0.76760  1.0000
  N   N4        1.0  0.33650  0.94290  0.23240  1.0000
  N   N5        1.0  0.75850  0.96100  0.83620  1.0000
  N   N6        1.0  0.24150  0.03900  0.16380  1.0000
  N   N7        1.0  0.94850  0.75530  0.10750  1.0000
  N   N8        1.0  0.05150  0.24470  0.89250  1.0000
  N   N9        1.0  0.90060  0.82180  0.16430  1.0000
  N   N10       1.0  0.09940  0.17820  0.83570  1.0000
  N   N11       1.0  0.86210  0.83690  0.02513  1.0000
  N   N12       1.0  0.13790  0.16310  0.97487  1.0000
  C   C1        1.0  0.62800  0.01710  0.56670  1.0000
  C   C2        1.0  0.37200  0.98290  0.43330  1.0000
  C   C3        1.0  0.53380  0.91500  0.51470  1.0000
  C   C4        1.0  0.46620  0.08500  0.48530  1.0000
  C   C5        1.0  0.40440  0.89640  0.44670  1.0000
  C   C6        1.0  0.59560  0.10360  0.55330  1.0000
  C   C7        1.0  0.77050  0.03500  0.63680  1.0000
  C   C8        1.0  0.22950  0.96500  0.36320  1.0000
  H   H1        1.0  0.82110  0.98970  0.60790  1.0000
  H   H2        1.0  0.17890  0.01030  0.39210  1.0000
  H   H3        1.0  0.83590  0.10800  0.65530  1.0000
  H   H4        1.0  0.16410  0.89200  0.34470  1.0000
  C   C9        1.0  0.56620  0.82230  0.53260  1.0000
  C   C10       1.0  0.43380  0.17770  0.46740  1.0000
  H   H5        1.0  0.67220  0.84120  0.55790  1.0000
  H   H6        1.0  0.32780  0.15880  0.44210  1.0000
  H   H7        1.0  0.53110  0.76300  0.47520  1.0000
  H   H8        1.0  0.46890  0.23700  0.52480  1.0000
  H   H9        1.0  0.51600  0.80350  0.57600  1.0000
  H   H10       1.0  0.48400  0.19650  0.42400  1.0000
  C   C11       1.0  0.30730  0.78410  0.38810  1.0000
  C   C12       1.0  0.69270  0.21590  0.61190  1.0000
  H   H11       1.0  0.35720  0.75390  0.34600  1.0000
  H   H12       1.0  0.64280  0.24610  0.65400  1.0000
  H   H13       1.0  0.21390  0.78310  0.35320  1.0000
  H   H14       1.0  0.78610  0.21690  0.64680  1.0000
  H   H15       1.0  0.28890  0.74330  0.42760  1.0000
  H   H16       1.0  0.71110  0.25670  0.57240  1.0000
  C   C13       1.0  0.67410  0.02300  0.83710  1.0000
  C   C14       1.0  0.32590  0.97700  0.16290  1.0000
  H   H17       1.0  0.62750  0.03990  0.88320  1.0000
  H   H18       1.0  0.37250  0.96010  0.11680  1.0000
  C   C15       1.0  0.80130  0.95750  0.76120  1.0000
  C   C16       1.0  0.19870  0.04250  0.23880  1.0000
  H   H19       1.0  0.86260  0.92090  0.74070  1.0000
  H   H20       1.0  0.13740  0.07910  0.25930  1.0000
  C   C17       1.0  0.01050  0.59280  0.06570  1.0000
  C   C18       1.0  0.98950  0.40720  0.93430  1.0000
  C   C19       1.0  0.13530  0.58640  0.03750  1.0000
  C   C20       1.0  0.86470  0.41360  0.96250  1.0000
  C   C21       1.0  0.12520  0.49210  0.97220  1.0000
  C   C22       1.0  0.87480  0.50790  0.02780  1.0000
  C   C23       1.0  0.01990  0.68900  0.14270  1.0000
  C   C24       1.0  0.98010  0.31100  0.85730  1.0000
  H   H21       1.0  0.97160  0.66660  0.18630  1.0000
  H   H22       1.0  0.02840  0.33340  0.81370  1.0000
  H   H23       1.0  0.12420  0.73050  0.17590  1.0000
  H   H24       1.0  0.87580  0.26950  0.82410  1.0000
  C   C25       1.0  0.27850  0.67890  0.07630  1.0000
  C   C26       1.0  0.72150  0.32110  0.92370  1.0000
  H   H25       1.0  0.25690  0.74350  0.08900  1.0000
  H   H26       1.0  0.74310  0.25650  0.91100  1.0000
  H   H27       1.0  0.33490  0.67520  0.03190  1.0000
  H   H28       1.0  0.66510  0.32480  0.96810  1.0000
  H   H29       1.0  0.33570  0.67750  0.13290  1.0000
  H   H30       1.0  0.66430  0.32250  0.86710  1.0000
  C   C27       1.0  0.26090  0.48220  0.94350  1.0000
  C   C28       1.0  0.73910  0.51780  0.05650  1.0000
  H   H31       1.0  0.32580  0.47050  0.99100  1.0000
  H   H32       1.0  0.67420  0.52950  0.00900  1.0000
  H   H33       1.0  0.31310  0.54620  0.93490  1.0000
  H   H34       1.0  0.68690  0.45380  0.06510  1.0000
  H   H35       1.0  0.23090  0.42340  0.88610  1.0000
  H   H36       1.0  0.76910  0.57660  0.11390  1.0000
  C   C29       1.0  0.84900  0.86830  0.11110  1.0000
  C   C30       1.0  0.15100  0.13170  0.88890  1.0000
  H   H37       1.0  0.80640  0.91920  0.13130  1.0000
  H   H38       1.0  0.19360  0.08080  0.86870  1.0000
  C   C31       1.0  0.92610  0.76580  0.02580  1.0000
  C   C32       1.0  0.07390  0.23420  0.97420  1.0000
  H   H39       1.0  0.95170  0.72830  0.97570  1.0000
  H   H40       1.0  0.04830  0.27170  0.02430  1.0000
  C   C33       1.0  0.14250  0.78990  0.86040  1.0000
  C   C34       1.0  0.85750  0.21010  0.13960  1.0000
  C   C35       1.0  0.29550  0.81280  0.87930  1.0000
  C   C36       1.0  0.70450  0.18720  0.12070  1.0000
  H   H41       1.0  0.36060  0.88090  0.91660  1.0000
  H   H42       1.0  0.63940  0.11910  0.08340  1.0000
  C   C37       1.0  0.35170  0.73570  0.84340  1.0000
  C   C38       1.0  0.64830  0.26430  0.15660  1.0000
  C   C39       1.0  0.25590  0.63420  0.78970  1.0000
  C   C40       1.0  0.74410  0.36580  0.21030  1.0000
  H   H43       1.0  0.29390  0.58180  0.76510  1.0000
  H   H44       1.0  0.70610  0.41820  0.23490  1.0000
  C   C41       1.0  0.10390  0.61090  0.77260  1.0000
  C   C42       1.0  0.89610  0.38910  0.22740  1.0000
  C   C43       1.0  0.04780  0.68880  0.80640  1.0000
  C   C44       1.0  0.95220  0.31120  0.19360  1.0000
  H   H45       1.0  0.94460  0.67310  0.79250  1.0000
  H   H46       1.0  0.05540  0.32690  0.20750  1.0000
  C   C45       1.0  0.08210  0.87380  0.90130  1.0000
  C   C46       1.0  0.91790  0.12620  0.09870  1.0000
  C   C47       1.0  0.51750  0.76430  0.86170  1.0000
  C   C48       1.0  0.48250  0.23570  0.13830  1.0000
