data_image0
_chemical_formula_structural       Dy4F16O8F4O4F4O12F4O4F4C4F8C4F4C8H4F4C16H4C20H4C4F8C4H4C4O4F16C4F8C4F4C4F8C4F4
_chemical_formula_sum              "Dy4 F96 O32 C80 H16"
_cell_length_a       17.073
_cell_length_b       20.108
_cell_length_c       17.497
_cell_angle_alpha    90
_cell_angle_beta     104.351
_cell_angle_gamma    90

_space_group_name_H-M_alt    "P 1"
_space_group_IT_number       1

loop_
  _space_group_symop_operation_xyz
  'x, y, z'

loop_
  _atom_site_type_symbol
  _atom_site_label
  _atom_site_symmetry_multiplicity
  _atom_site_fract_x
  _atom_site_fract_y
  _atom_site_fract_z
  _atom_site_occupancy
  Dy  Dy1       1.0  0.31884  0.13810  0.26217  1.0000
  Dy  Dy2       1.0  0.18116  0.63810  0.23783  1.0000
  Dy  Dy3       1.0  0.68116  0.86190  0.73783  1.0000
  Dy  Dy4       1.0  0.81884  0.36190  0.76217  1.0000
  F   F1        1.0  0.36895  0.36394  0.21935  1.0000
  F   F2        1.0  0.13105  0.86394  0.28065  1.0000
  F   F3        1.0  0.63105  0.63606  0.78065  1.0000
  F   F4        1.0  0.86895  0.13606  0.71935  1.0000
  F   F5        1.0  0.05735  0.99055  0.32038  1.0000
  F   F6        1.0  0.44265  0.49055  0.17962  1.0000
  F   F7        1.0  0.94265  0.00945  0.67962  1.0000
  F   F8        1.0  0.55735  0.50945  0.82038  1.0000
  F   F9        1.0  0.16109  0.00398  0.41710  1.0000
  F   F10       1.0  0.33891  0.50398  0.08290  1.0000
  F   F11       1.0  0.83891  0.99602  0.58290  1.0000
  F   F12       1.0  0.66109  0.49602  0.91710  1.0000
  F   F13       1.0  0.32289  0.34998  0.09503  1.0000
  F   F14       1.0  0.17711  0.84998  0.40497  1.0000
  F   F15       1.0  0.67711  0.65002  0.90497  1.0000
  F   F16       1.0  0.82289  0.15002  0.59503  1.0000
  O   O1        1.0  0.18235  0.16464  0.19562  1.0000
  O   O2        1.0  0.31765  0.66464  0.30438  1.0000
  O   O3        1.0  0.81765  0.83536  0.80438  1.0000
  O   O4        1.0  0.68235  0.33536  0.69562  1.0000
  O   O5        1.0  0.23696  0.07346  0.32282  1.0000
  O   O6        1.0  0.26304  0.57346  0.17718  1.0000
  O   O7        1.0  0.76304  0.92654  0.67718  1.0000
  O   O8        1.0  0.73696  0.42654  0.82282  1.0000
  F   F17       1.0  0.25120  0.40155  0.16151  1.0000
  F   F18       1.0  0.24880  0.90155  0.33849  1.0000
  F   F19       1.0  0.74880  0.59845  0.83849  1.0000
  F   F20       1.0  0.75120  0.09845  0.66151  1.0000
  O   O9        1.0  0.31797  0.23824  0.19497  1.0000
  O   O10       1.0  0.18203  0.73824  0.30503  1.0000
  O   O11       1.0  0.68203  0.76176  0.80503  1.0000
  O   O12       1.0  0.81797  0.26176  0.69497  1.0000
  F   F21       1.0  0.24330  0.32450  0.47587  1.0000
  F   F22       1.0  0.25670  0.82450  0.02413  1.0000
  F   F23       1.0  0.75670  0.67550  0.52413  1.0000
  F   F24       1.0  0.74330  0.17550  0.97587  1.0000
  O   O13       1.0  0.26351  0.05347  0.17255  1.0000
  O   O14       1.0  0.23649  0.55347  0.32745  1.0000
  O   O15       1.0  0.73649  0.94653  0.82745  1.0000
  O   O16       1.0  0.76351  0.44653  0.67255  1.0000
  O   O17       1.0  0.42733  0.20032  0.34183  1.0000
  O   O18       1.0  0.07267  0.70032  0.15817  1.0000
  O   O19       1.0  0.57267  0.79968  0.65817  1.0000
  O   O20       1.0  0.92733  0.29968  0.84183  1.0000
  O   O21       1.0  0.26525  0.20958  0.34315  1.0000
  O   O22       1.0  0.23475  0.70958  0.15685  1.0000
  O   O23       1.0  0.73475  0.79042  0.65685  1.0000
  O   O24       1.0  0.76525  0.29042  0.84315  1.0000
  F   F25       1.0  0.20580  0.35696  0.35620  1.0000
  F   F26       1.0  0.29420  0.85696  0.14380  1.0000
  F   F27       1.0  0.79420  0.64304  0.64380  1.0000
  F   F28       1.0  0.70580  0.14304  0.85620  1.0000
  O   O25       1.0  0.40345  0.05660  0.33299  1.0000
  O   O26       1.0  0.09655  0.55660  0.16701  1.0000
  O   O27       1.0  0.59655  0.94340  0.66701  1.0000
  O   O28       1.0  0.90345  0.44340  0.83299  1.0000
  F   F29       1.0  0.09244  0.08864  0.36625  1.0000
  F   F30       1.0  0.40756  0.58864  0.13375  1.0000
  F   F31       1.0  0.90756  0.91136  0.63375  1.0000
  F   F32       1.0  0.59244  0.41136  0.86625  1.0000
  C   C1        1.0  0.19670  0.02483  0.16220  1.0000
  C   C2        1.0  0.30330  0.52483  0.33780  1.0000
  C   C3        1.0  0.80330  0.97517  0.83780  1.0000
  C   C4        1.0  0.69670  0.47517  0.66220  1.0000
  F   F33       1.0  0.15390  0.26980  0.39350  1.0000
  F   F34       1.0  0.34610  0.76980  0.10650  1.0000
  F   F35       1.0  0.84610  0.73020  0.60650  1.0000
  F   F36       1.0  0.65390  0.23020  0.89350  1.0000
  F   F37       1.0  0.13250  0.05177  0.03129  1.0000
  F   F38       1.0  0.36750  0.55177  0.46871  1.0000
  F   F39       1.0  0.86750  0.94823  0.96871  1.0000
  F   F40       1.0  0.63250  0.44823  0.53129  1.0000
  C   C5        1.0  0.12100  0.03011  0.34960  1.0000
  C   C6        1.0  0.37900  0.53011  0.15040  1.0000
  C   C7        1.0  0.87900  0.96989  0.65040  1.0000
  C   C8        1.0  0.62100  0.46989  0.84960  1.0000
  F   F41       1.0  0.53540  0.97370  0.42520  1.0000
  F   F42       1.0  0.96460  0.47370  0.07480  1.0000
  F   F43       1.0  0.46460  0.02630  0.57480  1.0000
  F   F44       1.0  0.03540  0.52630  0.92520  1.0000
  C   C9        1.0  0.26620  0.28374  0.17780  1.0000
  C   C10       1.0  0.23380  0.78374  0.32220  1.0000
  C   C11       1.0  0.73380  0.71626  0.82220  1.0000
  C   C12       1.0  0.76620  0.21626  0.67780  1.0000
  C   C13       1.0  0.46330  0.00750  0.23890  1.0000
  C   C14       1.0  0.03670  0.50750  0.26110  1.0000
  C   C15       1.0  0.53670  0.99250  0.76110  1.0000
  C   C16       1.0  0.96330  0.49250  0.73890  1.0000
  H   H1        1.0  0.48820  0.96910  0.22720  1.0000
  H   H2        1.0  0.01180  0.46910  0.27280  1.0000
  H   H3        1.0  0.51180  0.03090  0.77280  1.0000
  H   H4        1.0  0.98820  0.53090  0.72720  1.0000
  F   F45       1.0  0.41780  0.93830  0.40700  1.0000
  F   F46       1.0  0.08220  0.43830  0.09300  1.0000
  F   F47       1.0  0.58220  0.06170  0.59300  1.0000
  F   F48       1.0  0.91780  0.56170  0.90700  1.0000
  C   C17       1.0  0.30170  0.35090  0.16390  1.0000
  C   C18       1.0  0.19830  0.85090  0.33610  1.0000
  C   C19       1.0  0.69830  0.64910  0.83610  1.0000
  C   C20       1.0  0.80170  0.14910  0.66390  1.0000
  C   C21       1.0  0.14770  0.21790  0.17650  1.0000
  C   C22       1.0  0.35230  0.71790  0.32350  1.0000
  C   C23       1.0  0.85230  0.78210  0.82350  1.0000
  C   C24       1.0  0.64770  0.28210  0.67650  1.0000
  C   C25       1.0  0.17560  0.04027  0.29280  1.0000
  C   C26       1.0  0.32440  0.54027  0.20720  1.0000
  C   C27       1.0  0.82440  0.95973  0.70720  1.0000
  C   C28       1.0  0.67560  0.45973  0.79280  1.0000
  C   C29       1.0  0.18340  0.27930  0.16770  1.0000
  C   C30       1.0  0.31660  0.77930  0.33230  1.0000
  C   C31       1.0  0.81660  0.72070  0.83230  1.0000
  C   C32       1.0  0.68340  0.22070  0.66770  1.0000
  H   H5        1.0  0.15130  0.31710  0.15510  1.0000
  H   H6        1.0  0.34870  0.81710  0.34490  1.0000
  H   H7        1.0  0.84870  0.68290  0.84490  1.0000
  H   H8        1.0  0.65130  0.18290  0.65510  1.0000
  C   C33       1.0  0.28880  0.26165  0.37960  1.0000
  C   C34       1.0  0.21120  0.76165  0.12040  1.0000
  C   C35       1.0  0.71120  0.73835  0.62040  1.0000
  C   C36       1.0  0.78880  0.23835  0.87960  1.0000
  C   C37       1.0  0.22250  0.30330  0.40210  1.0000
  C   C38       1.0  0.27750  0.80330  0.09790  1.0000
  C   C39       1.0  0.77750  0.69670  0.59790  1.0000
  C   C40       1.0  0.72250  0.19670  0.90210  1.0000
  C   C41       1.0  0.43070  0.25260  0.38100  1.0000
  C   C42       1.0  0.06930  0.75260  0.11900  1.0000
  C   C43       1.0  0.56930  0.74740  0.61900  1.0000
  C   C44       1.0  0.93070  0.24740  0.88100  1.0000
  C   C45       1.0  0.44360  0.01180  0.31010  1.0000
  C   C46       1.0  0.05640  0.51180  0.18990  1.0000
  C   C47       1.0  0.55640  0.98820  0.68990  1.0000
  C   C48       1.0  0.94360  0.48820  0.81010  1.0000
  C   C49       1.0  0.36730  0.28620  0.40090  1.0000
  C   C50       1.0  0.13270  0.78620  0.09910  1.0000
  C   C51       1.0  0.63270  0.71380  0.59910  1.0000
  C   C52       1.0  0.86730  0.21380  0.90090  1.0000
  H   H9        1.0  0.37770  0.32590  0.42890  1.0000
  H   H10       1.0  0.12230  0.82590  0.07110  1.0000
  H   H11       1.0  0.62230  0.67410  0.57110  1.0000
  H   H12       1.0  0.87770  0.17410  0.92890  1.0000
  C   C53       1.0  0.47280  0.95700  0.37230  1.0000
  C   C54       1.0  0.02720  0.45700  0.12770  1.0000
  C   C55       1.0  0.52720  0.04300  0.62770  1.0000
  C   C56       1.0  0.97280  0.54300  0.87230  1.0000
  F   F49       1.0  0.10390  0.95678  0.07026  1.0000
  F   F50       1.0  0.39610  0.45678  0.42974  1.0000
  F   F51       1.0  0.89610  0.04322  0.92974  1.0000
  F   F52       1.0  0.60390  0.54322  0.57026  1.0000
  F   F53       1.0  0.21830  0.97378  0.04735  1.0000
  F   F54       1.0  0.28170  0.47378  0.45265  1.0000
  F   F55       1.0  0.78170  0.02622  0.95265  1.0000
  F   F56       1.0  0.71830  0.52622  0.54735  1.0000
  C   C57       1.0  0.15030  0.01506  0.21640  1.0000
  C   C58       1.0  0.34970  0.51506  0.28360  1.0000
  C   C59       1.0  0.84970  0.98494  0.78360  1.0000
  C   C60       1.0  0.65030  0.48494  0.71640  1.0000
  H   H13       1.0  0.10200  0.99150  0.20150  1.0000
  H   H14       1.0  0.39800  0.49150  0.29850  1.0000
  H   H15       1.0  0.89800  0.00850  0.79850  1.0000
  H   H16       1.0  0.60200  0.50850  0.70150  1.0000
  C   C61       1.0  0.16240  0.00120  0.07730  1.0000
  C   C62       1.0  0.33760  0.50120  0.42270  1.0000
  C   C63       1.0  0.83760  0.99880  0.92270  1.0000
  C   C64       1.0  0.66240  0.49880  0.57730  1.0000
  O   O29       1.0  0.41175  0.11228  0.18867  1.0000
  O   O30       1.0  0.08825  0.61228  0.31133  1.0000
  O   O31       1.0  0.58825  0.88772  0.81133  1.0000
  O   O32       1.0  0.91175  0.38772  0.68867  1.0000
  F   F57       1.0  0.01687  0.26151  0.11580  1.0000
  F   F58       1.0  0.48313  0.76151  0.38420  1.0000
  F   F59       1.0  0.98313  0.73849  0.88420  1.0000
  F   F60       1.0  0.51687  0.23849  0.61580  1.0000
  F   F61       1.0  0.56360  0.24080  0.45920  1.0000
  F   F62       1.0  0.93640  0.74080  0.04080  1.0000
  F   F63       1.0  0.43640  0.75920  0.54080  1.0000
  F   F64       1.0  0.06360  0.25920  0.95920  1.0000
  F   F65       1.0  0.51900  0.33730  0.44890  1.0000
  F   F66       1.0  0.98100  0.83730  0.05110  1.0000
  F   F67       1.0  0.48100  0.66270  0.55110  1.0000
  F   F68       1.0  0.01900  0.16270  0.94890  1.0000
  F   F69       1.0  0.55210  0.28900  0.35310  1.0000
  F   F70       1.0  0.94790  0.78900  0.14690  1.0000
  F   F71       1.0  0.44790  0.71100  0.64690  1.0000
  F   F72       1.0  0.05210  0.21100  0.85310  1.0000
  C   C65       1.0  0.44750  0.05810  0.18400  1.0000
  C   C66       1.0  0.05250  0.55810  0.31600  1.0000
  C   C67       1.0  0.55250  0.94190  0.81600  1.0000
  C   C68       1.0  0.94750  0.44190  0.68400  1.0000
  F   F73       1.0  0.50820  0.10240  0.08610  1.0000
  F   F74       1.0  0.99180  0.60240  0.41390  1.0000
  F   F75       1.0  0.49180  0.89760  0.91390  1.0000
  F   F76       1.0  0.00820  0.39760  0.58610  1.0000
  F   F77       1.0  0.02630  0.16030  0.12040  1.0000
  F   F78       1.0  0.47370  0.66030  0.37960  1.0000
  F   F79       1.0  0.97370  0.83970  0.87960  1.0000
  F   F80       1.0  0.52630  0.33970  0.62040  1.0000
  C   C69       1.0  0.05540  0.21530  0.16150  1.0000
  C   C70       1.0  0.44460  0.71530  0.33850  1.0000
  C   C71       1.0  0.94460  0.78470  0.83850  1.0000
  C   C72       1.0  0.55540  0.28470  0.66150  1.0000
  F   F81       1.0  0.52310  0.99890  0.10800  1.0000
  F   F82       1.0  0.97690  0.49890  0.39200  1.0000
  F   F83       1.0  0.47690  0.00110  0.89200  1.0000
  F   F84       1.0  0.02310  0.50110  0.60800  1.0000
  C   C73       1.0  0.51640  0.28170  0.40980  1.0000
  C   C74       1.0  0.98360  0.78170  0.09020  1.0000
  C   C75       1.0  0.48360  0.71830  0.59020  1.0000
  C   C76       1.0  0.01640  0.21830  0.90980  1.0000
  F   F85       1.0  0.48800  0.89970  0.33890  1.0000
  F   F86       1.0  0.01200  0.39970  0.16110  1.0000
  F   F87       1.0  0.51200  0.10030  0.66110  1.0000
  F   F88       1.0  0.98800  0.60030  0.83890  1.0000
  F   F89       1.0  0.03350  0.21030  0.22310  1.0000
  F   F90       1.0  0.46650  0.71030  0.27690  1.0000
  F   F91       1.0  0.96650  0.78970  0.77690  1.0000
  F   F92       1.0  0.53350  0.28970  0.72310  1.0000
  C   C77       1.0  0.47520  0.04910  0.10830  1.0000
  C   C78       1.0  0.02480  0.54910  0.39170  1.0000
  C   C79       1.0  0.52480  0.95090  0.89170  1.0000
  C   C80       1.0  0.97520  0.45090  0.60830  1.0000
  F   F93       1.0  0.41220  0.03900  0.04800  1.0000
  F   F94       1.0  0.08780  0.53900  0.45200  1.0000
  F   F95       1.0  0.58780  0.96100  0.95200  1.0000
  F   F96       1.0  0.91220  0.46100  0.54800  1.0000
