data_image0
_chemical_formula_structural       Co2K2O8C16H8C8H8C8H8C8H8C8H8
_chemical_formula_sum              "Co2 K2 O8 C48 H40"
_cell_length_a       17.446
_cell_length_b       17.446
_cell_length_c       6.9858
_cell_angle_alpha    90
_cell_angle_beta     90
_cell_angle_gamma    90

_space_group_name_H-M_alt    "P 1"
_space_group_IT_number       1

loop_
  _space_group_symop_operation_xyz
  'x, y, z'

loop_
  _atom_site_type_symbol
  _atom_site_label
  _atom_site_symmetry_multiplicity
  _atom_site_fract_x
  _atom_site_fract_y
  _atom_site_fract_z
  _atom_site_occupancy
  Co  Co1       1.0  0.50000  0.00000  0.75000  1.0000
  Co  Co2       1.0  0.00000  0.50000  0.25000  1.0000
  K   K1        1.0  0.50000  0.00000  0.25000  1.0000
  K   K2        1.0  0.00000  0.50000  0.75000  1.0000
  O   O1        1.0  0.56905  0.95519  0.94070  1.0000
  O   O2        1.0  0.43095  0.04481  0.94070  1.0000
  O   O3        1.0  0.95519  0.43095  0.05930  1.0000
  O   O4        1.0  0.04481  0.56905  0.05930  1.0000
  O   O5        1.0  0.06905  0.45519  0.44070  1.0000
  O   O6        1.0  0.93095  0.54481  0.44070  1.0000
  O   O7        1.0  0.45519  0.93095  0.55930  1.0000
  O   O8        1.0  0.54481  0.06905  0.55930  1.0000
  C   C1        1.0  0.62976  0.91246  0.89980  1.0000
  C   C2        1.0  0.37024  0.08754  0.89980  1.0000
  C   C3        1.0  0.91246  0.37024  0.10020  1.0000
  C   C4        1.0  0.08754  0.62976  0.10020  1.0000
  C   C5        1.0  0.12976  0.41246  0.39980  1.0000
  C   C6        1.0  0.87024  0.58754  0.39980  1.0000
  C   C7        1.0  0.41246  0.87024  0.60020  1.0000
  C   C8        1.0  0.58754  0.12976  0.60020  1.0000
  C   C9        1.0  0.64543  0.88734  0.71240  1.0000
  C   C10       1.0  0.35457  0.11266  0.71240  1.0000
  C   C11       1.0  0.88734  0.35457  0.28760  1.0000
  C   C12       1.0  0.11266  0.64543  0.28760  1.0000
  C   C13       1.0  0.14543  0.38734  0.21240  1.0000
  C   C14       1.0  0.85457  0.61266  0.21240  1.0000
  C   C15       1.0  0.38734  0.85457  0.78760  1.0000
  C   C16       1.0  0.61266  0.14543  0.78760  1.0000
  H   H1        1.0  0.61180  0.90090  0.61090  1.0000
  H   H2        1.0  0.38820  0.09910  0.61090  1.0000
  H   H3        1.0  0.90090  0.38820  0.38910  1.0000
  H   H4        1.0  0.09910  0.61180  0.38910  1.0000
  H   H5        1.0  0.11180  0.40090  0.11090  1.0000
  H   H6        1.0  0.88820  0.59910  0.11090  1.0000
  H   H7        1.0  0.40090  0.88820  0.88910  1.0000
  H   H8        1.0  0.59910  0.11180  0.88910  1.0000
  C   C17       1.0  0.70990  0.84278  0.67490  1.0000
  C   C18       1.0  0.29010  0.15722  0.67490  1.0000
  C   C19       1.0  0.84278  0.29010  0.32510  1.0000
  C   C20       1.0  0.15722  0.70990  0.32510  1.0000
  C   C21       1.0  0.20990  0.34278  0.17490  1.0000
  C   C22       1.0  0.79010  0.65722  0.17490  1.0000
  C   C23       1.0  0.34278  0.79010  0.82510  1.0000
  C   C24       1.0  0.65722  0.20990  0.82510  1.0000
  H   H9        1.0  0.71990  0.82640  0.54760  1.0000
  H   H10       1.0  0.28010  0.17360  0.54760  1.0000
  H   H11       1.0  0.82640  0.28010  0.45240  1.0000
  H   H12       1.0  0.17360  0.71990  0.45240  1.0000
  H   H13       1.0  0.21990  0.32640  0.04760  1.0000
  H   H14       1.0  0.78010  0.67360  0.04760  1.0000
  H   H15       1.0  0.32640  0.78010  0.95240  1.0000
  H   H16       1.0  0.67360  0.21990  0.95240  1.0000
  C   C25       1.0  0.75965  0.82198  0.82040  1.0000
  C   C26       1.0  0.24035  0.17802  0.82040  1.0000
  C   C27       1.0  0.82198  0.24035  0.17960  1.0000
  C   C28       1.0  0.17802  0.75965  0.17960  1.0000
  C   C29       1.0  0.25965  0.32198  0.32040  1.0000
  C   C30       1.0  0.74035  0.67802  0.32040  1.0000
  C   C31       1.0  0.32198  0.74035  0.67960  1.0000
  C   C32       1.0  0.67802  0.25965  0.67960  1.0000
  H   H17       1.0  0.80340  0.79130  0.79350  1.0000
  H   H18       1.0  0.19660  0.20870  0.79350  1.0000
  H   H19       1.0  0.79130  0.19660  0.20650  1.0000
  H   H20       1.0  0.20870  0.80340  0.20650  1.0000
  H   H21       1.0  0.30340  0.29130  0.29350  1.0000
  H   H22       1.0  0.69660  0.70870  0.29350  1.0000
  H   H23       1.0  0.29130  0.69660  0.70650  1.0000
  H   H24       1.0  0.70870  0.30340  0.70650  1.0000
  C   C33       1.0  0.74501  0.84634  0.00540  1.0000
  C   C34       1.0  0.25499  0.15366  0.00540  1.0000
  C   C35       1.0  0.84634  0.25499  0.99460  1.0000
  C   C36       1.0  0.15366  0.74501  0.99460  1.0000
  C   C37       1.0  0.24501  0.34634  0.50540  1.0000
  C   C38       1.0  0.75499  0.65366  0.50540  1.0000
  C   C39       1.0  0.34634  0.75499  0.49460  1.0000
  C   C40       1.0  0.65366  0.24501  0.49460  1.0000
  H   H25       1.0  0.77890  0.83230  0.10580  1.0000
  H   H26       1.0  0.22110  0.16770  0.10580  1.0000
  H   H27       1.0  0.83230  0.22110  0.89420  1.0000
  H   H28       1.0  0.16770  0.77890  0.89420  1.0000
  H   H29       1.0  0.27890  0.33230  0.60580  1.0000
  H   H30       1.0  0.72110  0.66770  0.60580  1.0000
  H   H31       1.0  0.33230  0.72110  0.39420  1.0000
  H   H32       1.0  0.66770  0.27890  0.39420  1.0000
  C   C41       1.0  0.68108  0.89113  0.04560  1.0000
  C   C42       1.0  0.31892  0.10887  0.04560  1.0000
  C   C43       1.0  0.89113  0.31892  0.95440  1.0000
  C   C44       1.0  0.10887  0.68108  0.95440  1.0000
  C   C45       1.0  0.18108  0.39113  0.54560  1.0000
  C   C46       1.0  0.81892  0.60887  0.54560  1.0000
  C   C47       1.0  0.39113  0.81892  0.45440  1.0000
  C   C48       1.0  0.60887  0.18108  0.45440  1.0000
  H   H33       1.0  0.67200  0.90750  0.17320  1.0000
  H   H34       1.0  0.32800  0.09250  0.17320  1.0000
  H   H35       1.0  0.90750  0.32800  0.82680  1.0000
  H   H36       1.0  0.09250  0.67200  0.82680  1.0000
  H   H37       1.0  0.17200  0.40750  0.67320  1.0000
  H   H38       1.0  0.82800  0.59250  0.67320  1.0000
  H   H39       1.0  0.40750  0.82800  0.32680  1.0000
  H   H40       1.0  0.59250  0.17200  0.32680  1.0000
