data_image0
_chemical_formula_structural       Zn6O32C4H2C4H2C2H2C2H2C8H2C4H2C2H2C2H2C8H2C4H2C2H2C2H2C8H2C4H2C2H2C2H2C4
_chemical_formula_sum              "Zn6 O32 C64 H32"
_cell_length_a       9.578
_cell_length_b       10.2149
_cell_length_c       21.246
_cell_angle_alpha    78.801
_cell_angle_beta     86.868
_cell_angle_gamma    87.773

_space_group_name_H-M_alt    "P 1"
_space_group_IT_number       1

loop_
  _space_group_symop_operation_xyz
  'x, y, z'

loop_
  _atom_site_type_symbol
  _atom_site_label
  _atom_site_symmetry_multiplicity
  _atom_site_fract_x
  _atom_site_fract_y
  _atom_site_fract_z
  _atom_site_occupancy
  Zn  Zn1       1.0  0.19902  0.26767  0.24649  1.0000
  Zn  Zn2       1.0  0.80098  0.73233  0.75351  1.0000
  Zn  Zn3       1.0  0.26205  0.12585  0.12046  1.0000
  Zn  Zn4       1.0  0.73795  0.87415  0.87954  1.0000
  Zn  Zn5       1.0  0.12868  0.40139  0.37247  1.0000
  Zn  Zn6       1.0  0.87132  0.59861  0.62753  1.0000
  O   O1        1.0  0.25397  0.31307  0.07148  1.0000
  O   O2        1.0  0.74603  0.68693  0.92852  1.0000
  O   O3        1.0  0.24293  0.39914  0.16108  1.0000
  O   O4        1.0  0.75707  0.60086  0.83892  1.0000
  O   O5        1.0  0.30080  0.01970  0.04816  1.0000
  O   O6        1.0  0.69920  0.98030  0.95184  1.0000
  O   O7        1.0  0.24980  0.89274  0.14176  1.0000
  O   O8        1.0  0.75020  0.10726  0.85824  1.0000
  O   O9        1.0  0.16648  0.22390  0.42778  1.0000
  O   O10       1.0  0.83352  0.77610  0.57222  1.0000
  O   O11       1.0  0.15301  0.14730  0.33667  1.0000
  O   O12       1.0  0.84699  0.85270  0.66333  1.0000
  O   O13       1.0  0.12225  0.52369  0.43426  1.0000
  O   O14       1.0  0.87775  0.47631  0.56574  1.0000
  O   O15       1.0  0.11390  0.66608  0.34139  1.0000
  O   O16       1.0  0.88610  0.33392  0.65861  1.0000
  O   O17       1.0  0.01511  0.36945  0.24508  1.0000
  O   O18       1.0  0.98489  0.63055  0.75492  1.0000
  O   O19       1.0  0.93868  0.39961  0.34319  1.0000
  O   O20       1.0  0.06132  0.60039  0.65681  1.0000
  O   O21       1.0  0.28223  0.41254  0.30577  1.0000
  O   O22       1.0  0.71777  0.58746  0.69423  1.0000
  O   O23       1.0  0.41807  0.41460  0.38758  1.0000
  O   O24       1.0  0.58193  0.58540  0.61242  1.0000
  O   O25       1.0  0.45204  0.12092  0.15619  1.0000
  O   O26       1.0  0.54796  0.87908  0.84381  1.0000
  O   O27       1.0  0.38613  0.17370  0.25117  1.0000
  O   O28       1.0  0.61387  0.82630  0.74883  1.0000
  O   O29       1.0  0.98790  0.11510  0.11281  1.0000
  O   O30       1.0  0.01210  0.88490  0.88719  1.0000
  O   O31       1.0  0.11797  0.12825  0.19406  1.0000
  O   O32       1.0  0.88203  0.87175  0.80594  1.0000
  C   C1        1.0  0.28980  0.54470  0.06242  1.0000
  C   C2        1.0  0.71020  0.45530  0.93758  1.0000
  C   C3        1.0  0.27580  0.65760  0.09009  1.0000
  C   C4        1.0  0.72420  0.34240  0.90991  1.0000
  H   H1        1.0  0.24430  0.64970  0.13280  1.0000
  H   H2        1.0  0.75570  0.35030  0.86720  1.0000
  C   C5        1.0  0.30890  0.78310  0.05381  1.0000
  C   C6        1.0  0.69110  0.21690  0.94619  1.0000
  C   C7        1.0  0.36130  0.79390  0.99084  1.0000
  C   C8        1.0  0.63870  0.20610  0.00916  1.0000
  H   H3        1.0  0.38630  0.87670  0.96700  1.0000
  H   H4        1.0  0.61370  0.12330  0.03300  1.0000
  C   C9        1.0  0.37640  0.68090  0.96341  1.0000
  C   C10       1.0  0.62360  0.31910  0.03659  1.0000
  H   H5        1.0  0.41200  0.68810  0.92130  1.0000
  H   H6        1.0  0.58800  0.31190  0.07870  1.0000
  C   C11       1.0  0.33840  0.55740  0.99871  1.0000
  C   C12       1.0  0.66160  0.44260  0.00129  1.0000
  H   H7        1.0  0.34550  0.48270  0.97960  1.0000
  H   H8        1.0  0.65450  0.51730  0.02040  1.0000
  C   C13       1.0  0.25870  0.40860  0.10189  1.0000
  C   C14       1.0  0.74130  0.59140  0.89811  1.0000
  C   C15       1.0  0.28530  0.90500  0.08303  1.0000
  C   C16       1.0  0.71470  0.09500  0.91697  1.0000
  C   C17       1.0  0.16630  0.98970  0.43341  1.0000
  C   C18       1.0  0.83370  0.01030  0.56659  1.0000
  C   C19       1.0  0.15140  0.88450  0.40159  1.0000
  C   C20       1.0  0.84860  0.11550  0.59841  1.0000
  H   H9        1.0  0.14660  0.90150  0.35710  1.0000
  H   H10       1.0  0.85340  0.09850  0.64290  1.0000
  C   C21       1.0  0.14360  0.75390  0.43602  1.0000
  C   C22       1.0  0.85640  0.24610  0.56398  1.0000
  C   C23       1.0  0.15300  0.72920  0.50250  1.0000
  C   C24       1.0  0.84700  0.27080  0.49750  1.0000
  H   H11       1.0  0.14700  0.64230  0.52580  1.0000
  H   H12       1.0  0.85300  0.35770  0.47420  1.0000
  C   C25       1.0  0.17120  0.83350  0.53413  1.0000
  C   C26       1.0  0.82880  0.16650  0.46587  1.0000
  H   H13       1.0  0.17960  0.81630  0.57840  1.0000
  H   H14       1.0  0.82040  0.18370  0.42160  1.0000
  C   C27       1.0  0.17680  0.96340  0.49976  1.0000
  C   C28       1.0  0.82320  0.03660  0.50024  1.0000
  H   H15       1.0  0.18770  0.03330  0.52120  1.0000
  H   H16       1.0  0.81230  0.96670  0.47880  1.0000
  C   C29       1.0  0.16360  0.13060  0.39605  1.0000
  C   C30       1.0  0.83640  0.86940  0.60395  1.0000
  C   C31       1.0  0.12540  0.64230  0.40070  1.0000
  C   C32       1.0  0.87460  0.35770  0.59930  1.0000
  C   C33       1.0  0.77590  0.41970  0.26180  1.0000
  C   C34       1.0  0.22410  0.58030  0.73820  1.0000
  C   C35       1.0  0.66070  0.41090  0.30544  1.0000
  C   C36       1.0  0.33930  0.58910  0.69456  1.0000
  H   H17       1.0  0.67360  0.38840  0.34930  1.0000
  H   H18       1.0  0.32640  0.61160  0.65070  1.0000
  C   C37       1.0  0.52690  0.43560  0.28326  1.0000
  C   C38       1.0  0.47310  0.56440  0.71674  1.0000
  C   C39       1.0  0.50810  0.47670  0.21774  1.0000
  C   C40       1.0  0.49190  0.52330  0.78226  1.0000
  H   H19       1.0  0.41880  0.49780  0.20300  1.0000
  H   H20       1.0  0.58120  0.50220  0.79700  1.0000
  C   C41       1.0  0.62310  0.48610  0.17443  1.0000
  C   C42       1.0  0.37690  0.51390  0.82557  1.0000
  H   H21       1.0  0.61050  0.51370  0.13070  1.0000
  H   H22       1.0  0.38950  0.48630  0.86930  1.0000
  C   C43       1.0  0.75670  0.45450  0.19603  1.0000
  C   C44       1.0  0.24330  0.54550  0.80397  1.0000
  H   H23       1.0  0.83290  0.45660  0.16680  1.0000
  H   H24       1.0  0.16710  0.54340  0.83320  1.0000
  C   C45       1.0  0.92090  0.39330  0.28499  1.0000
  C   C46       1.0  0.07910  0.60670  0.71501  1.0000
  C   C47       1.0  0.40240  0.41930  0.32967  1.0000
  C   C48       1.0  0.59760  0.58070  0.67033  1.0000
  C   C49       1.0  0.62090  0.10890  0.23487  1.0000
  C   C50       1.0  0.37910  0.89110  0.76513  1.0000
  C   C51       1.0  0.73770  0.12080  0.19237  1.0000
  C   C52       1.0  0.26230  0.87920  0.80763  1.0000
  H   H25       1.0  0.72640  0.14280  0.14830  1.0000
  H   H26       1.0  0.27360  0.85720  0.85170  1.0000
  C   C53       1.0  0.87130  0.09960  0.21573  1.0000
  C   C54       1.0  0.12870  0.90040  0.78427  1.0000
  C   C55       1.0  0.88750  0.05750  0.28136  1.0000
  C   C56       1.0  0.11250  0.94250  0.71864  1.0000
  H   H27       1.0  0.97660  0.04090  0.29700  1.0000
  H   H28       1.0  0.02340  0.95910  0.70300  1.0000
  C   C57       1.0  0.77070  0.04020  0.32346  1.0000
  C   C58       1.0  0.22930  0.95980  0.67654  1.0000
  H   H29       1.0  0.78160  0.00850  0.36710  1.0000
  H   H30       1.0  0.21840  0.99150  0.63290  1.0000
  C   C59       1.0  0.63790  0.06980  0.30081  1.0000
  C   C60       1.0  0.36210  0.93020  0.69919  1.0000
  H   H31       1.0  0.56040  0.06380  0.32940  1.0000
  H   H32       1.0  0.43960  0.93620  0.67060  1.0000
  C   C61       1.0  0.47500  0.13730  0.21204  1.0000
  C   C62       1.0  0.52500  0.86270  0.78796  1.0000
  C   C63       1.0  0.99770  0.11690  0.17032  1.0000
  C   C64       1.0  0.00230  0.88310  0.82968  1.0000
