data_image0
_chemical_formula_structural       Zn8O48C16H4C4H4C4H4C28H4C20H4C4H4C12H4C4H4C4
_chemical_formula_sum              "Zn8 O48 C96 H32"
_cell_length_a       15.0872
_cell_length_b       9.0103
_cell_length_c       24.9822
_cell_angle_alpha    90
_cell_angle_beta     98.24
_cell_angle_gamma    90

_space_group_name_H-M_alt    "P 1"
_space_group_IT_number       1

loop_
  _space_group_symop_operation_xyz
  'x, y, z'

loop_
  _atom_site_type_symbol
  _atom_site_label
  _atom_site_symmetry_multiplicity
  _atom_site_fract_x
  _atom_site_fract_y
  _atom_site_fract_z
  _atom_site_occupancy
  Zn  Zn1       1.0  0.31936  0.68085  0.30697  1.0000
  Zn  Zn2       1.0  0.68064  0.18085  0.19303  1.0000
  Zn  Zn3       1.0  0.68064  0.31915  0.69303  1.0000
  Zn  Zn4       1.0  0.31936  0.81915  0.80697  1.0000
  Zn  Zn5       1.0  0.18173  0.80903  0.19070  1.0000
  Zn  Zn6       1.0  0.81827  0.30903  0.30930  1.0000
  Zn  Zn7       1.0  0.81827  0.19097  0.80930  1.0000
  Zn  Zn8       1.0  0.18173  0.69097  0.69070  1.0000
  O   O1        1.0  0.18991  0.67020  0.30097  1.0000
  O   O2        1.0  0.81009  0.17020  0.19903  1.0000
  O   O3        1.0  0.81009  0.32980  0.69903  1.0000
  O   O4        1.0  0.18991  0.82980  0.80097  1.0000
  O   O5        1.0  0.30883  0.81660  0.19163  1.0000
  O   O6        1.0  0.69117  0.31660  0.30837  1.0000
  O   O7        1.0  0.69117  0.18340  0.80837  1.0000
  O   O8        1.0  0.30883  0.68340  0.69163  1.0000
  O   O9        1.0  0.77747  0.51830  0.41592  1.0000
  O   O10       1.0  0.22253  0.01830  0.08408  1.0000
  O   O11       1.0  0.22253  0.48170  0.58408  1.0000
  O   O12       1.0  0.77747  0.98170  0.91592  1.0000
  O   O13       1.0  0.78432  0.98730  0.36108  1.0000
  O   O14       1.0  0.21568  0.48730  0.13892  1.0000
  O   O15       1.0  0.21568  0.01270  0.63892  1.0000
  O   O16       1.0  0.78432  0.51270  0.86108  1.0000
  O   O17       1.0  0.36845  0.62340  0.24078  1.0000
  O   O18       1.0  0.63155  0.12340  0.25922  1.0000
  O   O19       1.0  0.63155  0.37660  0.75922  1.0000
  O   O20       1.0  0.36845  0.87660  0.74078  1.0000
  O   O21       1.0  0.62866  0.37730  0.18567  1.0000
  O   O22       1.0  0.37134  0.87730  0.31433  1.0000
  O   O23       1.0  0.37134  0.62270  0.81433  1.0000
  O   O24       1.0  0.62866  0.12270  0.68567  1.0000
  O   O25       1.0  0.13444  0.87300  0.25683  1.0000
  O   O26       1.0  0.86556  0.37300  0.24317  1.0000
  O   O27       1.0  0.86556  0.12700  0.74317  1.0000
  O   O28       1.0  0.13444  0.62700  0.75683  1.0000
  O   O29       1.0  0.71381  0.48490  0.13092  1.0000
  O   O30       1.0  0.28619  0.98490  0.36908  1.0000
  O   O31       1.0  0.28619  0.51510  0.86908  1.0000
  O   O32       1.0  0.71381  0.01510  0.63092  1.0000
  O   O33       1.0  0.71860  0.05890  0.08337  1.0000
  O   O34       1.0  0.28140  0.55890  0.41663  1.0000
  O   O35       1.0  0.28140  0.94110  0.91663  1.0000
  O   O36       1.0  0.71860  0.44110  0.58337  1.0000
  O   O37       1.0  0.87999  0.43080  0.36731  1.0000
  O   O38       1.0  0.12001  0.93080  0.13269  1.0000
  O   O39       1.0  0.12001  0.56920  0.63269  1.0000
  O   O40       1.0  0.87999  0.06920  0.86731  1.0000
  O   O41       1.0  0.87953  0.12310  0.32146  1.0000
  O   O42       1.0  0.12047  0.62310  0.17854  1.0000
  O   O43       1.0  0.12047  0.87690  0.67854  1.0000
  O   O44       1.0  0.87953  0.37690  0.82146  1.0000
  O   O45       1.0  0.61304  0.06310  0.13589  1.0000
  O   O46       1.0  0.38696  0.56310  0.36411  1.0000
  O   O47       1.0  0.38696  0.93690  0.86411  1.0000
  O   O48       1.0  0.61304  0.43690  0.63589  1.0000
  C   C1        1.0  0.64030  0.04360  0.09048  1.0000
  C   C2        1.0  0.35970  0.54360  0.40952  1.0000
  C   C3        1.0  0.35970  0.95640  0.90952  1.0000
  C   C4        1.0  0.64030  0.45640  0.59048  1.0000
  C   C5        1.0  0.85370  0.47930  0.40986  1.0000
  C   C6        1.0  0.14630  0.97930  0.09014  1.0000
  C   C7        1.0  0.14630  0.52070  0.59014  1.0000
  C   C8        1.0  0.85370  0.02070  0.90986  1.0000
  C   C9        1.0  0.13580  0.77800  0.29399  1.0000
  C   C10       1.0  0.86420  0.27800  0.20601  1.0000
  C   C11       1.0  0.86420  0.22200  0.70601  1.0000
  C   C12       1.0  0.13580  0.72200  0.79399  1.0000
  C   C13       1.0  0.99560  0.88630  0.31930  1.0000
  C   C14       1.0  0.00440  0.38630  0.18070  1.0000
  C   C15       1.0  0.00440  0.11370  0.68070  1.0000
  C   C16       1.0  0.99560  0.61370  0.81930  1.0000
  H   H1        1.0  0.99350  0.95320  0.28970  1.0000
  H   H2        1.0  0.00650  0.45320  0.21030  1.0000
  H   H3        1.0  0.00650  0.04680  0.71030  1.0000
  H   H4        1.0  0.99350  0.54680  0.78970  1.0000
  C   C17       1.0  0.06950  0.68850  0.37420  1.0000
  C   C18       1.0  0.93050  0.18850  0.12580  1.0000
  C   C19       1.0  0.93050  0.31150  0.62580  1.0000
  C   C20       1.0  0.06950  0.81150  0.87420  1.0000
  H   H5        1.0  0.11900  0.62320  0.38270  1.0000
  H   H6        1.0  0.88100  0.12320  0.11730  1.0000
  H   H7        1.0  0.88100  0.37680  0.61730  1.0000
  H   H8        1.0  0.11900  0.87680  0.88270  1.0000
  C   C21       1.0  0.43310  0.89600  0.00157  1.0000
  C   C22       1.0  0.56690  0.39600  0.49843  1.0000
  C   C23       1.0  0.56690  0.10400  0.99843  1.0000
  C   C24       1.0  0.43310  0.60400  0.50157  1.0000
  H   H9        1.0  0.38670  0.82540  0.00300  1.0000
  H   H10       1.0  0.61330  0.32540  0.49700  1.0000
  H   H11       1.0  0.61330  0.17460  0.99700  1.0000
  H   H12       1.0  0.38670  0.67460  0.50300  1.0000
  C   C25       1.0  0.50440  0.80210  0.09131  1.0000
  C   C26       1.0  0.49560  0.30210  0.40869  1.0000
  C   C27       1.0  0.49560  0.19790  0.90869  1.0000
  C   C28       1.0  0.50440  0.69790  0.59131  1.0000
  C   C29       1.0  0.92850  0.49600  0.45766  1.0000
  C   C30       1.0  0.07150  0.99600  0.04234  1.0000
  C   C31       1.0  0.07150  0.50400  0.54234  1.0000
  C   C32       1.0  0.92850  0.00400  0.95766  1.0000
  C   C33       1.0  0.00070  0.68860  0.40590  1.0000
  C   C34       1.0  0.99930  0.18860  0.09410  1.0000
  C   C35       1.0  0.99930  0.31140  0.59410  1.0000
  C   C36       1.0  0.00070  0.81140  0.90590  1.0000
  C   C37       1.0  0.85700  0.00730  0.34499  1.0000
  C   C38       1.0  0.14300  0.50730  0.15501  1.0000
  C   C39       1.0  0.14300  0.99270  0.65501  1.0000
  C   C40       1.0  0.85700  0.49270  0.84499  1.0000
  C   C41       1.0  0.36730  0.71340  0.20242  1.0000
  C   C42       1.0  0.63270  0.21340  0.29758  1.0000
  C   C43       1.0  0.63270  0.28660  0.79758  1.0000
  C   C44       1.0  0.36730  0.78660  0.70242  1.0000
  C   C45       1.0  0.06570  0.78450  0.32986  1.0000
  C   C46       1.0  0.93430  0.28450  0.17014  1.0000
  C   C47       1.0  0.93430  0.21550  0.67014  1.0000
  C   C48       1.0  0.06570  0.71550  0.82986  1.0000
  C   C49       1.0  0.50780  0.60340  0.17712  1.0000
  C   C50       1.0  0.49220  0.10340  0.32288  1.0000
  C   C51       1.0  0.49220  0.39660  0.82288  1.0000
  C   C52       1.0  0.50780  0.89660  0.67712  1.0000
  H   H13       1.0  0.50910  0.53610  0.20650  1.0000
  H   H14       1.0  0.49090  0.03610  0.29350  1.0000
  H   H15       1.0  0.49090  0.46390  0.79350  1.0000
  H   H16       1.0  0.50910  0.96390  0.70650  1.0000
  C   C53       1.0  0.43810  0.70510  0.16686  1.0000
  C   C54       1.0  0.56190  0.20510  0.33314  1.0000
  C   C55       1.0  0.56190  0.29490  0.83314  1.0000
  C   C56       1.0  0.43810  0.79490  0.66686  1.0000
  C   C57       1.0  0.92860  0.88910  0.35256  1.0000
  C   C58       1.0  0.07140  0.38910  0.14744  1.0000
  C   C59       1.0  0.07140  0.11090  0.64744  1.0000
  C   C60       1.0  0.92860  0.61090  0.85256  1.0000
  C   C61       1.0  0.50260  0.90870  0.04573  1.0000
  C   C62       1.0  0.49740  0.40870  0.45427  1.0000
  C   C63       1.0  0.49740  0.09130  0.95427  1.0000
  C   C64       1.0  0.50260  0.59130  0.54573  1.0000
  C   C65       1.0  0.64750  0.47850  0.15381  1.0000
  C   C66       1.0  0.35250  0.97850  0.34619  1.0000
  C   C67       1.0  0.35250  0.52150  0.84619  1.0000
  C   C68       1.0  0.64750  0.02150  0.65381  1.0000
  C   C69       1.0  0.93130  0.78750  0.39529  1.0000
  C   C70       1.0  0.06870  0.28750  0.10471  1.0000
  C   C71       1.0  0.06870  0.21250  0.60471  1.0000
  C   C72       1.0  0.93130  0.71250  0.89529  1.0000
  H   H17       1.0  0.88470  0.78730  0.41710  1.0000
  H   H18       1.0  0.11530  0.28730  0.08290  1.0000
  H   H19       1.0  0.11530  0.21270  0.58290  1.0000
  H   H20       1.0  0.88470  0.71270  0.91710  1.0000
  C   C73       1.0  0.43610  0.80260  0.12289  1.0000
  C   C74       1.0  0.56390  0.30260  0.37711  1.0000
  C   C75       1.0  0.56390  0.19740  0.87711  1.0000
  C   C76       1.0  0.43610  0.69740  0.62289  1.0000
  H   H21       1.0  0.38730  0.86950  0.11470  1.0000
  H   H22       1.0  0.61270  0.36950  0.38530  1.0000
  H   H23       1.0  0.61270  0.13050  0.88530  1.0000
  H   H24       1.0  0.38730  0.63050  0.61470  1.0000
  C   C77       1.0  0.56820  0.01520  0.04364  1.0000
  C   C78       1.0  0.43180  0.51520  0.45636  1.0000
  C   C79       1.0  0.43180  0.98480  0.95636  1.0000
  C   C80       1.0  0.56820  0.48480  0.54364  1.0000
  C   C81       1.0  0.57630  0.59900  0.14455  1.0000
  C   C82       1.0  0.42370  0.09900  0.35545  1.0000
  C   C83       1.0  0.42370  0.40100  0.85545  1.0000
  C   C84       1.0  0.57630  0.90100  0.64455  1.0000
  C   C85       1.0  0.07320  0.58840  0.49583  1.0000
  C   C86       1.0  0.92680  0.08840  0.00417  1.0000
  C   C87       1.0  0.92680  0.41160  0.50417  1.0000
  C   C88       1.0  0.07320  0.91160  0.99583  1.0000
  H   H25       1.0  0.12430  0.64780  0.49290  1.0000
  H   H26       1.0  0.87570  0.14780  0.00710  1.0000
  H   H27       1.0  0.87570  0.35220  0.50710  1.0000
  H   H28       1.0  0.12430  0.85220  0.99290  1.0000
  C   C89       1.0  0.57490  0.69980  0.10336  1.0000
  C   C90       1.0  0.42510  0.19980  0.39664  1.0000
  C   C91       1.0  0.42510  0.30020  0.89664  1.0000
  C   C92       1.0  0.57490  0.80020  0.60336  1.0000
  H   H29       1.0  0.62280  0.70060  0.08240  1.0000
  H   H30       1.0  0.37720  0.20060  0.41760  1.0000
  H   H31       1.0  0.37720  0.29940  0.91760  1.0000
  H   H32       1.0  0.62280  0.79940  0.58240  1.0000
  C   C93       1.0  0.00370  0.58870  0.45416  1.0000
  C   C94       1.0  0.99630  0.08870  0.04584  1.0000
  C   C95       1.0  0.99630  0.41130  0.54584  1.0000
  C   C96       1.0  0.00370  0.91130  0.95416  1.0000
