data_image0
_chemical_formula_structural       UO8C4O2C6H2UO8C6H2C4O2
_chemical_formula_sum              "U2 O20 C20 H4"
_cell_length_a       7.217
_cell_length_b       9.295
_cell_length_c       16.374
_cell_angle_alpha    89.88
_cell_angle_beta     85.25
_cell_angle_gamma    87.35

_space_group_name_H-M_alt    "P 1"
_space_group_IT_number       1

loop_
  _space_group_symop_operation_xyz
  'x, y, z'

loop_
  _atom_site_type_symbol
  _atom_site_label
  _atom_site_symmetry_multiplicity
  _atom_site_fract_x
  _atom_site_fract_y
  _atom_site_fract_z
  _atom_site_occupancy
  U   U1        1.0  1.00000  0.00000  0.50000  1.0000
  O   O1        1.0  0.98820  0.03200  0.39250  1.0000
  O   O2        1.0  0.01180  0.96800  0.60750  1.0000
  O   O3        1.0  0.68020  0.12320  0.51970  1.0000
  O   O4        1.0  0.31980  0.87680  0.48030  1.0000
  O   O5        1.0  0.91420  0.26350  0.53030  1.0000
  O   O6        1.0  0.08580  0.73650  0.46970  1.0000
  O   O7        1.0  0.25830  0.16200  0.48570  1.0000
  O   O8        1.0  0.74170  0.83800  0.51430  1.0000
  C   C1        1.0  0.32320  0.23230  0.54310  1.0000
  C   C2        1.0  0.67680  0.76770  0.45690  1.0000
  C   C3        1.0  0.42070  0.36700  0.51780  1.0000
  C   C4        1.0  0.57930  0.63300  0.48220  1.0000
  O   O9        1.0  0.30660  0.20140  0.61640  1.0000
  O   O10       1.0  0.69340  0.79860  0.38360  1.0000
  C   C5        1.0  0.61530  0.37830  0.51510  1.0000
  C   C6        1.0  0.38470  0.62170  0.48490  1.0000
  C   C7        1.0  0.30890  0.48870  0.50270  1.0000
  C   C8        1.0  0.69110  0.51130  0.49730  1.0000
  C   C9        1.0  0.74160  0.24870  0.52330  1.0000
  C   C10       1.0  0.25840  0.75130  0.47670  1.0000
  H   H1        1.0  0.18050  0.48110  0.50450  1.0000
  H   H2        1.0  0.81950  0.51890  0.49550  1.0000
  U   U2        1.0  0.00000  0.00000  0.00000  1.0000
  O   O11       1.0  0.91790  0.26330  0.01770  1.0000
  O   O12       1.0  0.08210  0.73670  0.98230  1.0000
  O   O13       1.0  0.68250  0.12320  0.01010  1.0000
  O   O14       1.0  0.31750  0.87680  0.98990  1.0000
  O   O15       1.0  0.25980  0.15920  0.98600  1.0000
  O   O16       1.0  0.74020  0.84080  0.01400  1.0000
  O   O17       1.0  0.31880  0.19850  0.11540  1.0000
  O   O18       1.0  0.68120  0.80150  0.88460  1.0000
  C   C11       1.0  0.32950  0.22890  0.04110  1.0000
  C   C12       1.0  0.67050  0.77110  0.95890  1.0000
  C   C13       1.0  0.42210  0.36650  0.01570  1.0000
  C   C14       1.0  0.57790  0.63350  0.98430  1.0000
  C   C15       1.0  0.30740  0.48860  0.00670  1.0000
  C   C16       1.0  0.69260  0.51140  0.99330  1.0000
  H   H3        1.0  0.17880  0.48130  0.01120  1.0000
  H   H4        1.0  0.82120  0.51870  0.98880  1.0000
  C   C17       1.0  0.61670  0.37750  0.00920  1.0000
  C   C18       1.0  0.38330  0.62250  0.99080  1.0000
  C   C19       1.0  0.74480  0.24870  0.01280  1.0000
  C   C20       1.0  0.25520  0.75130  0.98720  1.0000
  O   O19       1.0  0.99640  0.98470  0.10960  1.0000
  O   O20       1.0  0.00360  0.01530  0.89040  1.0000
