data_image0
_chemical_formula_structural       Cd8O16N16C24H12C8H12S16
_chemical_formula_sum              "Cd8 O16 N16 C32 H24 S16"
_cell_length_a       17.0284
_cell_length_b       13.261
_cell_length_c       17.1968
_cell_angle_alpha    90
_cell_angle_beta     90
_cell_angle_gamma    90

_space_group_name_H-M_alt    "P 1"
_space_group_IT_number       1

loop_
  _space_group_symop_operation_xyz
  'x, y, z'

loop_
  _atom_site_type_symbol
  _atom_site_label
  _atom_site_symmetry_multiplicity
  _atom_site_fract_x
  _atom_site_fract_y
  _atom_site_fract_z
  _atom_site_occupancy
  Cd  Cd1       1.0  0.21835  0.06321  0.43803  1.0000
  Cd  Cd2       1.0  0.78165  0.93679  0.93803  1.0000
  Cd  Cd3       1.0  0.28165  0.56321  0.93803  1.0000
  Cd  Cd4       1.0  0.71835  0.43679  0.43803  1.0000
  Cd  Cd5       1.0  0.27820  0.92488  0.75445  1.0000
  Cd  Cd6       1.0  0.72180  0.07512  0.25445  1.0000
  Cd  Cd7       1.0  0.22180  0.42488  0.25445  1.0000
  Cd  Cd8       1.0  0.77820  0.57512  0.75445  1.0000
  O   O1        1.0  0.36010  0.06620  0.79400  1.0000
  O   O2        1.0  0.63990  0.93380  0.29400  1.0000
  O   O3        1.0  0.13990  0.56620  0.29400  1.0000
  O   O4        1.0  0.86010  0.43380  0.79400  1.0000
  O   O5        1.0  0.40770  0.91400  0.79890  1.0000
  O   O6        1.0  0.59230  0.08600  0.29890  1.0000
  O   O7        1.0  0.09230  0.41400  0.29890  1.0000
  O   O8        1.0  0.90770  0.58600  0.79890  1.0000
  O   O9        1.0  0.08860  0.05970  0.38990  1.0000
  O   O10       1.0  0.91140  0.94030  0.88990  1.0000
  O   O11       1.0  0.41140  0.55970  0.88990  1.0000
  O   O12       1.0  0.58860  0.44030  0.38990  1.0000
  O   O13       1.0  0.14420  0.91320  0.40370  1.0000
  O   O14       1.0  0.85580  0.08680  0.90370  1.0000
  O   O15       1.0  0.35580  0.41320  0.90370  1.0000
  O   O16       1.0  0.64420  0.58680  0.40370  1.0000
  N   N1        1.0  0.22880  0.23100  0.43990  1.0000
  N   N2        1.0  0.77120  0.76900  0.93990  1.0000
  N   N3        1.0  0.27120  0.73100  0.93990  1.0000
  N   N4        1.0  0.72880  0.26900  0.43990  1.0000
  N   N5        1.0  0.32770  0.93160  0.63070  1.0000
  N   N6        1.0  0.67230  0.06840  0.13070  1.0000
  N   N7        1.0  0.17230  0.43160  0.13070  1.0000
  N   N8        1.0  0.82770  0.56840  0.63070  1.0000
  N   N9        1.0  0.24890  0.26040  0.24800  1.0000
  N   N10       1.0  0.75110  0.73960  0.74800  1.0000
  N   N11       1.0  0.25110  0.76040  0.74800  1.0000
  N   N12       1.0  0.74890  0.23960  0.24800  1.0000
  N   N13       1.0  0.17020  0.05660  0.56230  1.0000
  N   N14       1.0  0.82980  0.94340  0.06230  1.0000
  N   N15       1.0  0.32980  0.55660  0.06230  1.0000
  N   N16       1.0  0.67020  0.44340  0.56230  1.0000
  C   C1        1.0  0.24740  0.31150  0.42540  1.0000
  C   C2        1.0  0.75260  0.68850  0.92540  1.0000
  C   C3        1.0  0.25260  0.81150  0.92540  1.0000
  C   C4        1.0  0.74740  0.18850  0.42540  1.0000
  C   C5        1.0  0.33550  0.94870  0.56560  1.0000
  C   C6        1.0  0.66450  0.05130  0.06560  1.0000
  C   C7        1.0  0.16450  0.44870  0.06560  1.0000
  C   C8        1.0  0.83550  0.55130  0.56560  1.0000
  C   C9        1.0  0.26160  0.17820  0.26460  1.0000
  C   C10       1.0  0.73840  0.82180  0.76460  1.0000
  C   C11       1.0  0.23840  0.67820  0.76460  1.0000
  C   C12       1.0  0.76160  0.32180  0.26460  1.0000
  C   C13       1.0  0.16290  0.04110  0.62590  1.0000
  C   C14       1.0  0.83710  0.95890  0.12590  1.0000
  C   C15       1.0  0.33710  0.54110  0.12590  1.0000
  C   C16       1.0  0.66290  0.45890  0.62590  1.0000
  C   C17       1.0  0.08560  0.96510  0.38520  1.0000
  C   C18       1.0  0.91440  0.03490  0.88520  1.0000
  C   C19       1.0  0.41440  0.46510  0.88520  1.0000
  C   C20       1.0  0.58560  0.53490  0.38520  1.0000
  C   C21       1.0  0.01340  0.91200  0.35500  1.0000
  C   C22       1.0  0.98660  0.08800  0.85500  1.0000
  C   C23       1.0  0.48660  0.41200  0.85500  1.0000
  C   C24       1.0  0.51340  0.58800  0.35500  1.0000
  H   H1        1.0  0.99370  0.94720  0.31030  1.0000
  H   H2        1.0  0.00630  0.05280  0.81030  1.0000
  H   H3        1.0  0.50630  0.44720  0.81030  1.0000
  H   H4        1.0  0.49370  0.55280  0.31030  1.0000
  H   H5        1.0  0.97380  0.91090  0.39470  1.0000
  H   H6        1.0  0.02620  0.08910  0.89470  1.0000
  H   H7        1.0  0.52620  0.41090  0.89470  1.0000
  H   H8        1.0  0.47380  0.58910  0.39470  1.0000
  H   H9        1.0  0.02670  0.84410  0.34070  1.0000
  H   H10       1.0  0.97330  0.15590  0.84070  1.0000
  H   H11       1.0  0.47330  0.34410  0.84070  1.0000
  H   H12       1.0  0.52670  0.65590  0.34070  1.0000
  C   C25       1.0  0.41570  0.00830  0.80500  1.0000
  C   C26       1.0  0.58430  0.99170  0.30500  1.0000
  C   C27       1.0  0.08430  0.50830  0.30500  1.0000
  C   C28       1.0  0.91570  0.49170  0.80500  1.0000
  C   C29       1.0  0.49570  0.04990  0.82580  1.0000
  C   C30       1.0  0.50430  0.95010  0.32580  1.0000
  C   C31       1.0  0.00430  0.54990  0.32580  1.0000
  C   C32       1.0  0.99570  0.45010  0.82580  1.0000
  H   H13       1.0  0.53540  0.01410  0.79740  1.0000
  H   H14       1.0  0.46460  0.98590  0.29740  1.0000
  H   H15       1.0  0.96460  0.51410  0.29740  1.0000
  H   H16       1.0  0.03540  0.48590  0.79740  1.0000
  H   H17       1.0  0.50460  0.04190  0.88050  1.0000
  H   H18       1.0  0.49540  0.95810  0.38050  1.0000
  H   H19       1.0  0.99540  0.54190  0.38050  1.0000
  H   H20       1.0  0.00460  0.45810  0.88050  1.0000
  H   H21       1.0  0.49780  0.12020  0.81250  1.0000
  H   H22       1.0  0.50220  0.87980  0.31250  1.0000
  H   H23       1.0  0.00220  0.62020  0.31250  1.0000
  H   H24       1.0  0.99780  0.37980  0.81250  1.0000
  S   S1        1.0  0.27462  0.42749  0.40675  1.0000
  S   S2        1.0  0.72538  0.57251  0.90675  1.0000
  S   S3        1.0  0.22538  0.92749  0.90675  1.0000
  S   S4        1.0  0.77462  0.07251  0.40675  1.0000
  S   S5        1.0  0.34934  0.97125  0.47287  1.0000
  S   S6        1.0  0.65066  0.02875  0.97287  1.0000
  S   S7        1.0  0.15066  0.47125  0.97287  1.0000
  S   S8        1.0  0.84934  0.52875  0.47287  1.0000
  S   S9        1.0  0.27934  0.06123  0.28883  1.0000
  S   S10       1.0  0.72066  0.93877  0.78883  1.0000
  S   S11       1.0  0.22066  0.56123  0.78883  1.0000
  S   S12       1.0  0.77934  0.43877  0.28883  1.0000
  S   S13       1.0  0.14938  0.02069  0.72032  1.0000
  S   S14       1.0  0.85062  0.97931  0.22032  1.0000
  S   S15       1.0  0.35062  0.52069  0.22032  1.0000
  S   S16       1.0  0.64938  0.47931  0.72032  1.0000
