data_image0
_chemical_formula_structural       Cd2C6H2C2H2C2H2C2H2C6H2C2H2C4H2C2H2C2H4C4H2C4H2C4H2C4O16H4
_chemical_formula_sum              "Cd2 C44 H30 O16"
_cell_length_a       10.3139
_cell_length_b       11.5987
_cell_length_c       12.548
_cell_angle_alpha    105.271
_cell_angle_beta     93.539
_cell_angle_gamma    112.827

_space_group_name_H-M_alt    "P 1"
_space_group_IT_number       1

loop_
  _space_group_symop_operation_xyz
  'x, y, z'

loop_
  _atom_site_type_symbol
  _atom_site_label
  _atom_site_symmetry_multiplicity
  _atom_site_fract_x
  _atom_site_fract_y
  _atom_site_fract_z
  _atom_site_occupancy
  Cd  Cd1       1.0  0.58276  0.36729  0.94319  1.0000
  Cd  Cd2       1.0  0.41724  0.63271  0.05681  1.0000
  C   C1        1.0  0.53820  0.28230  0.16440  1.0000
  C   C2        1.0  0.46180  0.71770  0.83560  1.0000
  C   C3        1.0  0.59530  0.23190  0.24790  1.0000
  C   C4        1.0  0.40470  0.76810  0.75210  1.0000
  C   C5        1.0  0.58110  0.10230  0.20980  1.0000
  C   C6        1.0  0.41890  0.89770  0.79020  1.0000
  H   H1        1.0  0.53170  0.04990  0.13740  1.0000
  H   H2        1.0  0.46830  0.95010  0.86260  1.0000
  C   C7        1.0  0.63840  0.05000  0.27680  1.0000
  C   C8        1.0  0.36160  0.95000  0.72320  1.0000
  H   H3        1.0  0.62640  0.96300  0.25070  1.0000
  H   H4        1.0  0.37360  0.03700  0.74930  1.0000
  C   C9        1.0  0.71380  0.12920  0.38330  1.0000
  C   C10       1.0  0.28620  0.87080  0.61670  1.0000
  H   H5        1.0  0.75550  0.09640  0.42870  1.0000
  H   H6        1.0  0.24450  0.90360  0.57130  1.0000
  C   C11       1.0  0.72750  0.25750  0.42250  1.0000
  C   C12       1.0  0.27250  0.74250  0.57750  1.0000
  H   H7        1.0  0.77880  0.30970  0.49440  1.0000
  H   H8        1.0  0.22120  0.69030  0.50560  1.0000
  C   C13       1.0  0.66640  0.31070  0.35740  1.0000
  C   C14       1.0  0.33360  0.68930  0.64260  1.0000
  C   C15       1.0  0.68360  0.44900  0.40920  1.0000
  C   C16       1.0  0.31640  0.55100  0.59080  1.0000
  C   C17       1.0  0.72020  0.54340  0.35340  1.0000
  C   C18       1.0  0.27980  0.45660  0.64660  1.0000
  H   H9        1.0  0.73210  0.52060  0.27910  1.0000
  H   H10       1.0  0.26790  0.47940  0.72090  1.0000
  C   C19       1.0  0.73910  0.67160  0.40830  1.0000
  C   C20       1.0  0.26090  0.32840  0.59170  1.0000
  H   H11       1.0  0.76470  0.73390  0.37050  1.0000
  H   H12       1.0  0.23530  0.26610  0.62950  1.0000
  C   C21       1.0  0.72010  0.70730  0.51920  1.0000
  C   C22       1.0  0.27990  0.29270  0.48080  1.0000
  C   C23       1.0  0.68210  0.61280  0.57340  1.0000
  C   C24       1.0  0.31790  0.38720  0.42660  1.0000
  H   H13       1.0  0.66840  0.63480  0.64730  1.0000
  H   H14       1.0  0.33160  0.36520  0.35270  1.0000
  C   C25       1.0  0.66440  0.48640  0.51890  1.0000
  C   C26       1.0  0.33560  0.51360  0.48110  1.0000
  H   H15       1.0  0.63860  0.42450  0.55710  1.0000
  H   H16       1.0  0.36140  0.57550  0.44290  1.0000
  C   C27       1.0  0.74090  0.84430  0.58020  1.0000
  C   C28       1.0  0.25910  0.15570  0.41980  1.0000
  H   H17       1.0  0.72470  0.88710  0.52720  1.0000
  H   H18       1.0  0.27530  0.11290  0.47280  1.0000
  H   H19       1.0  0.67380  0.84260  0.63130  1.0000
  H   H20       1.0  0.32620  0.15740  0.36870  1.0000
  C   C29       1.0  0.92410  0.03820  0.71460  1.0000
  C   C30       1.0  0.07590  0.96180  0.28540  1.0000
  C   C31       1.0  0.06810  0.10670  0.76220  1.0000
  C   C32       1.0  0.93190  0.89330  0.23780  1.0000
  H   H21       1.0  0.13050  0.06770  0.74310  1.0000
  H   H22       1.0  0.86950  0.93230  0.25690  1.0000
  C   C33       1.0  0.12040  0.23260  0.83800  1.0000
  C   C34       1.0  0.87960  0.76740  0.16200  1.0000
  C   C35       1.0  0.02700  0.29140  0.86770  1.0000
  C   C36       1.0  0.97300  0.70860  0.13230  1.0000
  H   H23       1.0  0.06130  0.37640  0.91760  1.0000
  H   H24       1.0  0.93870  0.62360  0.08240  1.0000
  C   C37       1.0  0.88240  0.22140  0.82160  1.0000
  C   C38       1.0  0.11760  0.77860  0.17840  1.0000
  C   C39       1.0  0.83000  0.09590  0.74320  1.0000
  C   C40       1.0  0.17000  0.90410  0.25680  1.0000
  H   H25       1.0  0.73350  0.05140  0.71040  1.0000
  H   H26       1.0  0.26650  0.94860  0.28960  1.0000
  C   C41       1.0  0.77690  0.27770  0.86020  1.0000
  C   C42       1.0  0.22310  0.72230  0.13980  1.0000
  C   C43       1.0  0.27740  0.30510  0.88790  1.0000
  C   C44       1.0  0.72260  0.69490  0.11210  1.0000
  O   O1        1.0  0.59600  0.27840  0.07881  1.0000
  O   O2        1.0  0.40400  0.72160  0.92119  1.0000
  O   O3        1.0  0.44220  0.32013  0.18305  1.0000
  O   O4        1.0  0.55780  0.67987  0.81695  1.0000
  O   O5        1.0  0.88524  0.91458  0.64178  1.0000
  O   O6        1.0  0.11476  0.08542  0.35822  1.0000
  O   O7        1.0  0.64587  0.21034  0.81737  1.0000
  O   O8        1.0  0.35413  0.78966  0.18263  1.0000
  O   O9        1.0  0.82186  0.38716  0.93569  1.0000
  O   O10       1.0  0.17814  0.61284  0.06431  1.0000
  O   O11       1.0  0.32770  0.42473  0.93990  1.0000
  O   O12       1.0  0.67230  0.57527  0.06010  1.0000
  O   O13       1.0  0.35155  0.23978  0.87328  1.0000
  O   O14       1.0  0.64845  0.76022  0.12672  1.0000
  O   O15       1.0  0.59279  0.45496  0.79404  1.0000
  O   O16       1.0  0.40721  0.54504  0.20596  1.0000
  H   H27       1.0  0.57080  0.51990  0.80470  1.0000
  H   H28       1.0  0.42920  0.48010  0.19530  1.0000
  H   H29       1.0  0.54670  0.39110  0.73550  1.0000
  H   H30       1.0  0.45330  0.60890  0.26450  1.0000
