data_image0
_chemical_formula_structural       Mn2C6H2C2H2C2H2C2H2C6H2C2H2C4H2C2H2C2H4C4H2C4H2C4H2C4O14
_chemical_formula_sum              "Mn2 C44 H26 O14"
_cell_length_a       9.6912
_cell_length_b       10.6438
_cell_length_c       12.065
_cell_angle_alpha    72.106
_cell_angle_beta     83.744
_cell_angle_gamma    81.562

_space_group_name_H-M_alt    "P 1"
_space_group_IT_number       1

loop_
  _space_group_symop_operation_xyz
  'x, y, z'

loop_
  _atom_site_type_symbol
  _atom_site_label
  _atom_site_symmetry_multiplicity
  _atom_site_fract_x
  _atom_site_fract_y
  _atom_site_fract_z
  _atom_site_occupancy
  Mn  Mn1       1.0  0.61952  0.44264  0.09144  1.0000
  Mn  Mn2       1.0  0.38048  0.55736  0.90856  1.0000
  C   C1        1.0  0.45370  0.67150  0.12020  1.0000
  C   C2        1.0  0.54630  0.32850  0.87980  1.0000
  C   C3        1.0  0.37810  0.77710  0.16990  1.0000
  C   C4        1.0  0.62190  0.22290  0.83010  1.0000
  C   C5        1.0  0.37900  0.75420  0.29030  1.0000
  C   C6        1.0  0.62100  0.24580  0.70970  1.0000
  H   H1        1.0  0.43890  0.68380  0.33320  1.0000
  H   H2        1.0  0.56110  0.31620  0.66680  1.0000
  C   C7        1.0  0.29270  0.83410  0.34680  1.0000
  C   C8        1.0  0.70730  0.16590  0.65320  1.0000
  H   H3        1.0  0.29250  0.81640  0.42730  1.0000
  H   H4        1.0  0.70750  0.18360  0.57270  1.0000
  C   C9        1.0  0.20630  0.94100  0.28180  1.0000
  C   C10       1.0  0.79370  0.05900  0.71820  1.0000
  H   H5        1.0  0.14570  0.99420  0.31870  1.0000
  H   H6        1.0  0.85430  0.00580  0.68130  1.0000
  C   C11       1.0  0.21080  0.96820  0.16150  1.0000
  C   C12       1.0  0.78920  0.03180  0.83850  1.0000
  H   H7        1.0  0.15550  0.04250  0.11850  1.0000
  H   H8        1.0  0.84450  0.95750  0.88150  1.0000
  C   C13       1.0  0.29530  0.88810  0.10300  1.0000
  C   C14       1.0  0.70470  0.11190  0.89700  1.0000
  C   C15       1.0  0.29860  0.92590  0.97290  1.0000
  C   C16       1.0  0.70140  0.07410  0.02710  1.0000
  C   C17       1.0  0.17600  0.96540  0.91560  1.0000
  C   C18       1.0  0.82400  0.03460  0.08440  1.0000
  H   H9        1.0  0.09070  0.96130  0.95940  1.0000
  H   H10       1.0  0.90930  0.03870  0.04060  1.0000
  C   C19       1.0  0.17710  0.01110  0.79470  1.0000
  C   C20       1.0  0.82290  0.98890  0.20530  1.0000
  H   H11       1.0  0.09310  0.03770  0.75880  1.0000
  H   H12       1.0  0.90690  0.96230  0.24120  1.0000
  C   C21       1.0  0.30190  0.01730  0.72730  1.0000
  C   C22       1.0  0.69810  0.98270  0.27270  1.0000
  C   C23       1.0  0.42550  0.97340  0.78340  1.0000
  C   C24       1.0  0.57450  0.02660  0.21660  1.0000
  H   H13       1.0  0.51040  0.97370  0.73920  1.0000
  H   H14       1.0  0.48960  0.02630  0.26080  1.0000
  C   C25       1.0  0.42440  0.92940  0.90400  1.0000
  C   C26       1.0  0.57560  0.07060  0.09600  1.0000
  H   H15       1.0  0.50860  0.90180  0.93970  1.0000
  H   H16       1.0  0.49140  0.09820  0.06030  1.0000
  C   C27       1.0  0.30790  0.07180  0.59600  1.0000
  C   C28       1.0  0.69210  0.92820  0.40400  1.0000
  H   H17       1.0  0.36010  0.14800  0.57030  1.0000
  H   H18       1.0  0.63990  0.85200  0.42970  1.0000
  H   H19       1.0  0.35430  0.00460  0.56110  1.0000
  H   H20       1.0  0.64570  0.99540  0.43890  1.0000
  C   C29       1.0  0.14780  0.17790  0.44650  1.0000
  C   C30       1.0  0.85220  0.82210  0.55350  1.0000
  C   C31       1.0  0.00880  0.20100  0.41970  1.0000
  C   C32       1.0  0.99120  0.79900  0.58030  1.0000
  H   H21       1.0  0.93960  0.17020  0.47750  1.0000
  H   H22       1.0  0.06040  0.82980  0.52250  1.0000
  C   C33       1.0  0.97270  0.27030  0.30620  1.0000
  C   C34       1.0  0.02730  0.72970  0.69380  1.0000
  C   C35       1.0  0.07800  0.31510  0.22100  1.0000
  C   C36       1.0  0.92200  0.68490  0.77900  1.0000
  H   H23       1.0  0.05510  0.35930  0.14470  1.0000
  H   H24       1.0  0.94490  0.64070  0.85530  1.0000
  C   C37       1.0  0.21670  0.29500  0.24820  1.0000
  C   C38       1.0  0.78330  0.70500  0.75180  1.0000
  C   C39       1.0  0.25290  0.22530  0.36190  1.0000
  C   C40       1.0  0.74710  0.77470  0.63810  1.0000
  H   H25       1.0  0.34570  0.21080  0.38070  1.0000
  H   H26       1.0  0.65430  0.78920  0.61930  1.0000
  C   C41       1.0  0.82160  0.30430  0.27740  1.0000
  C   C42       1.0  0.17840  0.69570  0.72260  1.0000
  C   C43       1.0  0.32530  0.35720  0.15720  1.0000
  C   C44       1.0  0.67470  0.64280  0.84280  1.0000
  O   O1        1.0  0.56620  0.60903  0.16277  1.0000
  O   O2        1.0  0.43380  0.39097  0.83723  1.0000
  O   O3        1.0  0.39600  0.64513  0.04314  1.0000
  O   O4        1.0  0.60400  0.35487  0.95686  1.0000
  O   O5        1.0  0.16890  0.11010  0.56143  1.0000
  O   O6        1.0  0.83110  0.88990  0.43857  1.0000
  O   O7        1.0  0.72840  0.28000  0.35702  1.0000
  O   O8        1.0  0.27160  0.72000  0.64298  1.0000
  O   O9        1.0  0.80240  0.36130  0.16940  1.0000
  O   O10       1.0  0.19760  0.63870  0.83060  1.0000
  O   O11       1.0  0.28650  0.41270  0.05534  1.0000
  O   O12       1.0  0.71350  0.58730  0.94466  1.0000
  O   O13       1.0  0.44540  0.35370  0.18959  1.0000
  O   O14       1.0  0.55460  0.64630  0.81041  1.0000
