data_image0
_chemical_formula_structural       Cd4C12H4C4H4C4H4C8H4C8H4C4H4C4H4C8H4C16H4C4H4C4H4C8H4C8H4C4H4C4H4C8H4C4N16O32
_chemical_formula_sum              "Cd4 C112 H64 N16 O32"
_cell_length_a       9.6304
_cell_length_b       21.85
_cell_length_c       19.77
_cell_angle_alpha    90
_cell_angle_beta     92.7
_cell_angle_gamma    90

_space_group_name_H-M_alt    "P 1"
_space_group_IT_number       1

loop_
  _space_group_symop_operation_xyz
  'x, y, z'

loop_
  _atom_site_type_symbol
  _atom_site_label
  _atom_site_symmetry_multiplicity
  _atom_site_fract_x
  _atom_site_fract_y
  _atom_site_fract_z
  _atom_site_occupancy
  Cd  Cd1       1.0  0.64548  0.25292  0.50554  1.0000
  Cd  Cd2       1.0  0.85452  0.75292  0.99446  1.0000
  Cd  Cd3       1.0  0.35452  0.74708  0.49446  1.0000
  Cd  Cd4       1.0  0.14548  0.24708  0.00554  1.0000
  C   C1        1.0  0.82280  0.20554  0.60685  1.0000
  C   C2        1.0  0.67720  0.70554  0.89315  1.0000
  C   C3        1.0  0.17720  0.79446  0.39315  1.0000
  C   C4        1.0  0.32280  0.29446  0.10685  1.0000
  C   C5        1.0  0.88370  0.16788  0.66499  1.0000
  C   C6        1.0  0.61630  0.66788  0.83501  1.0000
  C   C7        1.0  0.11630  0.83212  0.33501  1.0000
  C   C8        1.0  0.38370  0.33212  0.16499  1.0000
  C   C9        1.0  0.96710  0.19539  0.71572  1.0000
  C   C10       1.0  0.53290  0.69539  0.78428  1.0000
  C   C11       1.0  0.03290  0.80461  0.28428  1.0000
  C   C12       1.0  0.46710  0.30461  0.21572  1.0000
  H   H1        1.0  0.98750  0.23690  0.71330  1.0000
  H   H2        1.0  0.51250  0.73690  0.78670  1.0000
  H   H3        1.0  0.01250  0.76310  0.28670  1.0000
  H   H4        1.0  0.48750  0.26310  0.21330  1.0000
  C   C13       1.0  0.02010  0.16076  0.76999  1.0000
  C   C14       1.0  0.47990  0.66076  0.73001  1.0000
  C   C15       1.0  0.97990  0.83924  0.23001  1.0000
  C   C16       1.0  0.52010  0.33924  0.26999  1.0000
  H   H5        1.0  0.07620  0.17920  0.80370  1.0000
  H   H6        1.0  0.42380  0.67920  0.69630  1.0000
  H   H7        1.0  0.92380  0.82080  0.19630  1.0000
  H   H8        1.0  0.57620  0.32080  0.30370  1.0000
  C   C17       1.0  0.98980  0.09943  0.77402  1.0000
  C   C18       1.0  0.51020  0.59943  0.72598  1.0000
  C   C19       1.0  0.01020  0.90057  0.22598  1.0000
  C   C20       1.0  0.48980  0.40057  0.27402  1.0000
  H   H9        1.0  0.02610  0.07630  0.81020  1.0000
  H   H10       1.0  0.47390  0.57630  0.68980  1.0000
  H   H11       1.0  0.97390  0.92370  0.18980  1.0000
  H   H12       1.0  0.52610  0.42370  0.31020  1.0000
  C   C21       1.0  0.90530  0.07215  0.72425  1.0000
  C   C22       1.0  0.59470  0.57215  0.77575  1.0000
  C   C23       1.0  0.09470  0.92785  0.27575  1.0000
  C   C24       1.0  0.40530  0.42785  0.22425  1.0000
  C   C25       1.0  0.85270  0.10648  0.66986  1.0000
  C   C26       1.0  0.64730  0.60648  0.83014  1.0000
  C   C27       1.0  0.14730  0.89352  0.33014  1.0000
  C   C28       1.0  0.35270  0.39352  0.16986  1.0000
  H   H13       1.0  0.79620  0.08790  0.63640  1.0000
  H   H14       1.0  0.70380  0.58790  0.86360  1.0000
  H   H15       1.0  0.20380  0.91210  0.36360  1.0000
  H   H16       1.0  0.29620  0.41210  0.13640  1.0000
  C   C29       1.0  0.75530  0.92492  0.69723  1.0000
  C   C30       1.0  0.74470  0.42492  0.80277  1.0000
  C   C31       1.0  0.24470  0.07508  0.30277  1.0000
  C   C32       1.0  0.25530  0.57508  0.19723  1.0000
  C   C33       1.0  0.82990  0.88380  0.73818  1.0000
  C   C34       1.0  0.67010  0.38380  0.76182  1.0000
  C   C35       1.0  0.17010  0.11620  0.26182  1.0000
  C   C36       1.0  0.32990  0.61620  0.23818  1.0000
  H   H17       1.0  0.90070  0.89760  0.76800  1.0000
  H   H18       1.0  0.59930  0.39760  0.73200  1.0000
  H   H19       1.0  0.09930  0.10240  0.23200  1.0000
  H   H20       1.0  0.40070  0.60240  0.26800  1.0000
  C   C37       1.0  0.79830  0.82253  0.73425  1.0000
  C   C38       1.0  0.70170  0.32253  0.76575  1.0000
  C   C39       1.0  0.20170  0.17747  0.26575  1.0000
  C   C40       1.0  0.29830  0.67747  0.23425  1.0000
  H   H21       1.0  0.84600  0.79490  0.76260  1.0000
  H   H22       1.0  0.65400  0.29490  0.73740  1.0000
  H   H23       1.0  0.15400  0.20510  0.23740  1.0000
  H   H24       1.0  0.34600  0.70510  0.26260  1.0000
  C   C41       1.0  0.69640  0.80163  0.68851  1.0000
  C   C42       1.0  0.80360  0.30163  0.81149  1.0000
  C   C43       1.0  0.30360  0.19837  0.31149  1.0000
  C   C44       1.0  0.19640  0.69837  0.18851  1.0000
  H   H25       1.0  0.67910  0.75990  0.68480  1.0000
  H   H26       1.0  0.82090  0.25990  0.81520  1.0000
  H   H27       1.0  0.32090  0.24010  0.31520  1.0000
  H   H28       1.0  0.17910  0.74010  0.18480  1.0000
  C   C45       1.0  0.61960  0.84232  0.64795  1.0000
  C   C46       1.0  0.88040  0.34232  0.85205  1.0000
  C   C47       1.0  0.38040  0.15768  0.35205  1.0000
  C   C48       1.0  0.11960  0.65768  0.14795  1.0000
  C   C49       1.0  0.64860  0.90422  0.65379  1.0000
  C   C50       1.0  0.85140  0.40422  0.84621  1.0000
  C   C51       1.0  0.35140  0.09578  0.34621  1.0000
  C   C52       1.0  0.14860  0.59578  0.15379  1.0000
  H   H29       1.0  0.59570  0.93220  0.62820  1.0000
  H   H30       1.0  0.90430  0.43220  0.87180  1.0000
  H   H31       1.0  0.40430  0.06780  0.37180  1.0000
  H   H32       1.0  0.09570  0.56780  0.12820  1.0000
  C   C53       1.0  0.50830  0.82063  0.59730  1.0000
  C   C54       1.0  0.99170  0.32063  0.90270  1.0000
  C   C55       1.0  0.49170  0.17937  0.40270  1.0000
  C   C56       1.0  0.00830  0.67937  0.09730  1.0000
  C   C57       1.0  0.47540  0.31105  0.59663  1.0000
  C   C58       1.0  0.02460  0.81105  0.90337  1.0000
  C   C59       1.0  0.52460  0.68895  0.40337  1.0000
  C   C60       1.0  0.97540  0.18895  0.09663  1.0000
  C   C61       1.0  0.37350  0.33596  0.64505  1.0000
  C   C62       1.0  0.12650  0.83596  0.85495  1.0000
  C   C63       1.0  0.62650  0.66404  0.35495  1.0000
  C   C64       1.0  0.87350  0.16404  0.14505  1.0000
  C   C65       1.0  0.31680  0.29884  0.69322  1.0000
  C   C66       1.0  0.18320  0.79884  0.80678  1.0000
  C   C67       1.0  0.68320  0.70116  0.30678  1.0000
  C   C68       1.0  0.81680  0.20116  0.19322  1.0000
  H   H33       1.0  0.34290  0.25790  0.69640  1.0000
  H   H34       1.0  0.15710  0.75790  0.80360  1.0000
  H   H35       1.0  0.65710  0.74210  0.30360  1.0000
  H   H36       1.0  0.84290  0.24210  0.19640  1.0000
  C   C69       1.0  0.22190  0.32207  0.73664  1.0000
  C   C70       1.0  0.27810  0.82207  0.76336  1.0000
  C   C71       1.0  0.77810  0.67793  0.26336  1.0000
  C   C72       1.0  0.72190  0.17793  0.23664  1.0000
  H   H37       1.0  0.18660  0.29690  0.76960  1.0000
  H   H38       1.0  0.31340  0.79690  0.73040  1.0000
  H   H39       1.0  0.81340  0.70310  0.23040  1.0000
  H   H40       1.0  0.68660  0.20310  0.26960  1.0000
  C   C73       1.0  0.17850  0.38217  0.73179  1.0000
  C   C74       1.0  0.32150  0.88217  0.76821  1.0000
  C   C75       1.0  0.82150  0.61783  0.26821  1.0000
  C   C76       1.0  0.67850  0.11783  0.23179  1.0000
  H   H41       1.0  0.11250  0.39730  0.76030  1.0000
  H   H42       1.0  0.38750  0.89730  0.73970  1.0000
  H   H43       1.0  0.88750  0.60270  0.23970  1.0000
  H   H44       1.0  0.61250  0.10270  0.26030  1.0000
  C   C77       1.0  0.23510  0.41972  0.68355  1.0000
  C   C78       1.0  0.26490  0.91972  0.81645  1.0000
  C   C79       1.0  0.76490  0.58028  0.31645  1.0000
  C   C80       1.0  0.73510  0.08028  0.18355  1.0000
  C   C81       1.0  0.33300  0.39687  0.64153  1.0000
  C   C82       1.0  0.16700  0.89687  0.85847  1.0000
  C   C83       1.0  0.66700  0.60313  0.35847  1.0000
  C   C84       1.0  0.83300  0.10313  0.14153  1.0000
  H   H45       1.0  0.37250  0.42270  0.61040  1.0000
  H   H46       1.0  0.12750  0.92270  0.88960  1.0000
  H   H47       1.0  0.62750  0.57730  0.38960  1.0000
  H   H48       1.0  0.87250  0.07730  0.11040  1.0000
  C   C85       1.0  0.07120  0.56492  0.69462  1.0000
  C   C86       1.0  0.42880  0.06492  0.80538  1.0000
  C   C87       1.0  0.92880  0.43508  0.30538  1.0000
  C   C88       1.0  0.57120  0.93508  0.19462  1.0000
  C   C89       1.0  0.96730  0.58987  0.73192  1.0000
  C   C90       1.0  0.53270  0.08987  0.76808  1.0000
  C   C91       1.0  0.03270  0.41013  0.26808  1.0000
  C   C92       1.0  0.46730  0.91013  0.23192  1.0000
  H   H49       1.0  0.91930  0.56540  0.76140  1.0000
  H   H50       1.0  0.58070  0.06540  0.73860  1.0000
  H   H51       1.0  0.08070  0.43460  0.23860  1.0000
  H   H52       1.0  0.41930  0.93460  0.26140  1.0000
  C   C93       1.0  0.93500  0.65136  0.72516  1.0000
  C   C94       1.0  0.56500  0.15136  0.77484  1.0000
  C   C95       1.0  0.06500  0.34864  0.27484  1.0000
  C   C96       1.0  0.43500  0.84864  0.22516  1.0000
  H   H53       1.0  0.86610  0.66840  0.75070  1.0000
  H   H54       1.0  0.63390  0.16840  0.74930  1.0000
  H   H55       1.0  0.13390  0.33160  0.24930  1.0000
  H   H56       1.0  0.36610  0.83160  0.25070  1.0000
  C   C97       1.0  0.00440  0.68744  0.68074  1.0000
  C   C98       1.0  0.49560  0.18744  0.81926  1.0000
  C   C99       1.0  0.99560  0.31256  0.31926  1.0000
  C   C100      1.0  0.50440  0.81256  0.18074  1.0000
  H   H57       1.0  0.98320  0.72890  0.67700  1.0000
  H   H58       1.0  0.51680  0.22890  0.82300  1.0000
  H   H59       1.0  0.01680  0.27110  0.32300  1.0000
  H   H60       1.0  0.48320  0.77110  0.17700  1.0000
  C   C101      1.0  0.10540  0.66248  0.64169  1.0000
  C   C102      1.0  0.39460  0.16248  0.85831  1.0000
  C   C103      1.0  0.89460  0.33752  0.35831  1.0000
  C   C104      1.0  0.60540  0.83752  0.14169  1.0000
  C   C105      1.0  0.13940  0.60131  0.64905  1.0000
  C   C106      1.0  0.36060  0.10131  0.85095  1.0000
  C   C107      1.0  0.86060  0.39869  0.35095  1.0000
  C   C108      1.0  0.63940  0.89869  0.14905  1.0000
  H   H61       1.0  0.20830  0.58440  0.62340  1.0000
  H   H62       1.0  0.29170  0.08440  0.87660  1.0000
  H   H63       1.0  0.79170  0.41560  0.37660  1.0000
  H   H64       1.0  0.70830  0.91560  0.12340  1.0000
  C   C109      1.0  0.17850  0.70063  0.59072  1.0000
  C   C110      1.0  0.32150  0.20063  0.90928  1.0000
  C   C111      1.0  0.82150  0.29937  0.40928  1.0000
  C   C112      1.0  0.67850  0.79937  0.09072  1.0000
  N   N1        1.0  0.87820  0.00823  0.73161  1.0000
  N   N2        1.0  0.62180  0.50823  0.76839  1.0000
  N   N3        1.0  0.12180  0.99177  0.26839  1.0000
  N   N4        1.0  0.37820  0.49177  0.23161  1.0000
  N   N5        1.0  0.78160  0.98912  0.69363  1.0000
  N   N6        1.0  0.71840  0.48912  0.80637  1.0000
  N   N7        1.0  0.21840  0.01088  0.30637  1.0000
  N   N8        1.0  0.28160  0.51088  0.19363  1.0000
  N   N9        1.0  0.20070  0.48259  0.67328  1.0000
  N   N10       1.0  0.29930  0.98259  0.82672  1.0000
  N   N11       1.0  0.79930  0.51741  0.32672  1.0000
  N   N12       1.0  0.70070  0.01741  0.17328  1.0000
  N   N13       1.0  0.10240  0.50167  0.70624  1.0000
  N   N14       1.0  0.39760  0.00167  0.79376  1.0000
  N   N15       1.0  0.89760  0.49833  0.29376  1.0000
  N   N16       1.0  0.60240  0.99833  0.20624  1.0000
  O   O1        1.0  0.75770  0.17644  0.56018  1.0000
  O   O2        1.0  0.74230  0.67644  0.93982  1.0000
  O   O3        1.0  0.24230  0.82356  0.43982  1.0000
  O   O4        1.0  0.25770  0.32356  0.06018  1.0000
  O   O5        1.0  0.83480  0.26187  0.60763  1.0000
  O   O6        1.0  0.66520  0.76187  0.89237  1.0000
  O   O7        1.0  0.16520  0.73813  0.39237  1.0000
  O   O8        1.0  0.33480  0.23813  0.10763  1.0000
  O   O9        1.0  0.51050  0.76560  0.58035  1.0000
  O   O10       1.0  0.98950  0.26560  0.91965  1.0000
  O   O11       1.0  0.48950  0.23440  0.41965  1.0000
  O   O12       1.0  0.01050  0.73440  0.08035  1.0000
  O   O13       1.0  0.42350  0.85869  0.57409  1.0000
  O   O14       1.0  0.07650  0.35869  0.92591  1.0000
  O   O15       1.0  0.57650  0.14131  0.42591  1.0000
  O   O16       1.0  0.92350  0.64131  0.07409  1.0000
  O   O17       1.0  0.48720  0.25448  0.59099  1.0000
  O   O18       1.0  0.01280  0.75448  0.90901  1.0000
  O   O19       1.0  0.51280  0.74552  0.40901  1.0000
  O   O20       1.0  0.98720  0.24552  0.09099  1.0000
  O   O21       1.0  0.54200  0.34786  0.56269  1.0000
  O   O22       1.0  0.95800  0.84786  0.93731  1.0000
  O   O23       1.0  0.45800  0.65214  0.43731  1.0000
  O   O24       1.0  0.04200  0.15214  0.06269  1.0000
  O   O25       1.0  0.25490  0.67199  0.55127  1.0000
  O   O26       1.0  0.24510  0.17199  0.94873  1.0000
  O   O27       1.0  0.74510  0.32801  0.44873  1.0000
  O   O28       1.0  0.75490  0.82801  0.05127  1.0000
  O   O29       1.0  0.16070  0.75661  0.58919  1.0000
  O   O30       1.0  0.33930  0.25661  0.91081  1.0000
  O   O31       1.0  0.83930  0.24339  0.41081  1.0000
  O   O32       1.0  0.66070  0.74339  0.08919  1.0000
