data_image0
_chemical_formula_structural       Co4O32C12H8C8H8C4H12
_chemical_formula_sum              "Co4 O32 C24 H28"
_cell_length_a       9.054
_cell_length_b       6.6468
_cell_length_c       20.277
_cell_angle_alpha    90
_cell_angle_beta     96.871
_cell_angle_gamma    90

_space_group_name_H-M_alt    "P 1"
_space_group_IT_number       1

loop_
  _space_group_symop_operation_xyz
  'x, y, z'

loop_
  _atom_site_type_symbol
  _atom_site_label
  _atom_site_symmetry_multiplicity
  _atom_site_fract_x
  _atom_site_fract_y
  _atom_site_fract_z
  _atom_site_occupancy
  Co  Co1       1.0  0.96059  0.99753  0.28302  1.0000
  Co  Co2       1.0  0.53941  0.49753  0.21698  1.0000
  Co  Co3       1.0  0.03941  0.00247  0.71698  1.0000
  Co  Co4       1.0  0.46059  0.50247  0.78302  1.0000
  O   O1        1.0  0.84780  0.19840  0.34068  1.0000
  O   O2        1.0  0.65220  0.69840  0.15932  1.0000
  O   O3        1.0  0.15220  0.80160  0.65932  1.0000
  O   O4        1.0  0.34780  0.30160  0.84068  1.0000
  O   O5        1.0  0.05800  0.27350  0.26666  1.0000
  O   O6        1.0  0.44200  0.77350  0.23334  1.0000
  O   O7        1.0  0.94200  0.72650  0.73334  1.0000
  O   O8        1.0  0.55800  0.22650  0.76666  1.0000
  O   O9        1.0  0.17100  0.50280  0.33325  1.0000
  O   O10       1.0  0.32900  0.00280  0.16675  1.0000
  O   O11       1.0  0.82900  0.49720  0.66675  1.0000
  O   O12       1.0  0.67100  0.99720  0.83325  1.0000
  O   O13       1.0  0.10350  0.96440  0.37023  1.0000
  O   O14       1.0  0.39650  0.46440  0.12977  1.0000
  O   O15       1.0  0.89650  0.03560  0.62977  1.0000
  O   O16       1.0  0.60350  0.53560  0.87023  1.0000
  O   O17       1.0  0.20860  0.00430  0.47321  1.0000
  O   O18       1.0  0.29140  0.50430  0.02679  1.0000
  O   O19       1.0  0.79140  0.99570  0.52679  1.0000
  O   O20       1.0  0.70860  0.49570  0.97321  1.0000
  O   O21       1.0  0.66160  0.52330  0.31048  1.0000
  O   O22       1.0  0.83840  0.02330  0.18952  1.0000
  O   O23       1.0  0.33840  0.47670  0.68952  1.0000
  O   O24       1.0  0.16160  0.97670  0.81048  1.0000
  O   O25       1.0  0.82160  0.75700  0.29017  1.0000
  O   O26       1.0  0.67840  0.25700  0.20983  1.0000
  O   O27       1.0  0.17840  0.24300  0.70983  1.0000
  O   O28       1.0  0.32160  0.74300  0.79017  1.0000
  O   O29       1.0  0.10930  0.82630  0.23753  1.0000
  O   O30       1.0  0.39070  0.32630  0.26247  1.0000
  O   O31       1.0  0.89070  0.17370  0.76247  1.0000
  O   O32       1.0  0.60930  0.67370  0.73753  1.0000
  C   C1        1.0  0.95560  0.34220  0.36853  1.0000
  C   C2        1.0  0.54440  0.84220  0.13147  1.0000
  C   C3        1.0  0.04440  0.65780  0.63147  1.0000
  C   C4        1.0  0.45560  0.15780  0.86853  1.0000
  C   C5        1.0  0.07100  0.37670  0.31920  1.0000
  C   C6        1.0  0.42900  0.87670  0.18080  1.0000
  C   C7        1.0  0.92900  0.62330  0.68080  1.0000
  C   C8        1.0  0.57100  0.12330  0.81920  1.0000
  C   C9        1.0  0.03110  0.24740  0.43232  1.0000
  C   C10       1.0  0.46890  0.74740  0.06768  1.0000
  C   C11       1.0  0.96890  0.75260  0.56768  1.0000
  C   C12       1.0  0.53110  0.25260  0.93232  1.0000
  H   H1        1.0  0.09660  0.34690  0.45540  1.0000
  H   H2        1.0  0.40340  0.84690  0.04460  1.0000
  H   H3        1.0  0.90340  0.65310  0.54460  1.0000
  H   H4        1.0  0.59660  0.15310  0.95540  1.0000
  H   H5        1.0  0.95510  0.21580  0.46060  1.0000
  H   H6        1.0  0.54490  0.71580  0.03940  1.0000
  H   H7        1.0  0.04490  0.78420  0.53940  1.0000
  H   H8        1.0  0.45510  0.28420  0.96060  1.0000
  C   C13       1.0  0.12010  0.06010  0.42430  1.0000
  C   C14       1.0  0.37990  0.56010  0.07570  1.0000
  C   C15       1.0  0.87990  0.93990  0.57570  1.0000
  C   C16       1.0  0.62010  0.43990  0.92430  1.0000
  C   C17       1.0  0.88220  0.54360  0.38430  1.0000
  C   C18       1.0  0.61780  0.04360  0.11570  1.0000
  C   C19       1.0  0.11780  0.45640  0.61570  1.0000
  C   C20       1.0  0.38220  0.95640  0.88430  1.0000
  H   H9        1.0  0.82470  0.52540  0.42120  1.0000
  H   H10       1.0  0.67530  0.02540  0.07880  1.0000
  H   H11       1.0  0.17530  0.47460  0.57880  1.0000
  H   H12       1.0  0.32470  0.97460  0.92120  1.0000
  H   H13       1.0  0.95870  0.64310  0.39700  1.0000
  H   H14       1.0  0.54130  0.14310  0.10300  1.0000
  H   H15       1.0  0.04130  0.35690  0.60300  1.0000
  H   H16       1.0  0.45870  0.85690  0.89700  1.0000
  C   C21       1.0  0.78220  0.61730  0.32466  1.0000
  C   C22       1.0  0.71780  0.11730  0.17534  1.0000
  C   C23       1.0  0.21780  0.38270  0.67534  1.0000
  C   C24       1.0  0.28220  0.88270  0.82466  1.0000
  H   H17       1.0  0.77800  0.26100  0.31780  1.0000
  H   H18       1.0  0.72200  0.76100  0.18220  1.0000
  H   H19       1.0  0.22200  0.73900  0.68220  1.0000
  H   H20       1.0  0.27800  0.23900  0.81780  1.0000
  H   H21       1.0  0.14700  0.73800  0.26440  1.0000
  H   H22       1.0  0.35300  0.23800  0.23560  1.0000
  H   H23       1.0  0.85300  0.26200  0.73560  1.0000
  H   H24       1.0  0.64700  0.76200  0.76440  1.0000
  H   H25       1.0  0.17600  0.88000  0.21720  1.0000
  H   H26       1.0  0.32400  0.38000  0.28280  1.0000
  H   H27       1.0  0.82400  0.12000  0.78280  1.0000
  H   H28       1.0  0.67600  0.62000  0.71720  1.0000
