data_image0
_chemical_formula_structural       Zn2O18C2H2C2H2C6H2C10H2C6H2C2H2C4
_chemical_formula_sum              "Zn2 O18 C32 H12"
_cell_length_a       9.7725
_cell_length_b       11.5217
_cell_length_c       12.8609
_cell_angle_alpha    99.2
_cell_angle_beta     99.788
_cell_angle_gamma    91.11

_space_group_name_H-M_alt    "P 1"
_space_group_IT_number       1

loop_
  _space_group_symop_operation_xyz
  'x, y, z'

loop_
  _atom_site_type_symbol
  _atom_site_label
  _atom_site_symmetry_multiplicity
  _atom_site_fract_x
  _atom_site_fract_y
  _atom_site_fract_z
  _atom_site_occupancy
  Zn  Zn1       1.0  0.79996  0.07830  0.49905  1.0000
  Zn  Zn2       1.0  0.20004  0.92170  0.50095  1.0000
  O   O1        1.0  0.90200  0.21280  0.47000  1.0000
  O   O2        1.0  0.09800  0.78720  0.53000  1.0000
  O   O3        1.0  0.06100  0.30620  0.40620  1.0000
  O   O4        1.0  0.93900  0.69380  0.59380  1.0000
  O   O5        1.0  0.05220  0.86660  0.27740  1.0000
  O   O6        1.0  0.94780  0.13340  0.72260  1.0000
  O   O7        1.0  0.32690  0.97160  0.64020  1.0000
  O   O8        1.0  0.67310  0.02840  0.35980  1.0000
  O   O9        1.0  0.35390  0.14090  0.58290  1.0000
  O   O10       1.0  0.64610  0.85910  0.41710  1.0000
  O   O11       1.0  0.08040  0.01600  0.41290  1.0000
  O   O12       1.0  0.91960  0.98400  0.58710  1.0000
  O   O13       1.0  0.65090  0.11980  0.58260  1.0000
  O   O14       1.0  0.34910  0.88020  0.41740  1.0000
  O   O15       1.0  0.73540  0.25220  0.04160  1.0000
  O   O16       1.0  0.26460  0.74780  0.95840  1.0000
  O   O17       1.0  0.69470  0.31160  0.65070  1.0000
  O   O18       1.0  0.30530  0.68840  0.34930  1.0000
  C   C1        1.0  0.84150  0.06620  0.06620  1.0000
  C   C2        1.0  0.15850  0.93380  0.93380  1.0000
  H   H1        1.0  0.81730  0.03490  0.99400  1.0000
  H   H2        1.0  0.18270  0.96510  0.00600  1.0000
  C   C3        1.0  0.91510  0.00240  0.13750  1.0000
  C   C4        1.0  0.08490  0.99760  0.86250  1.0000
  H   H3        1.0  0.93880  0.92660  0.11220  1.0000
  H   H4        1.0  0.06120  0.07340  0.88780  1.0000
  C   C5        1.0  0.95530  0.04760  0.24590  1.0000
  C   C6        1.0  0.04470  0.95240  0.75410  1.0000
  C   C7        1.0  0.92110  0.16220  0.28360  1.0000
  C   C8        1.0  0.07890  0.83780  0.71640  1.0000
  C   C9        1.0  0.84530  0.22600  0.21250  1.0000
  C   C10       1.0  0.15470  0.77400  0.78750  1.0000
  H   H5        1.0  0.82150  0.30190  0.23710  1.0000
  H   H6        1.0  0.17850  0.69810  0.76290  1.0000
  C   C11       1.0  0.80470  0.17810  0.10560  1.0000
  C   C12       1.0  0.19530  0.82190  0.89440  1.0000
  C   C13       1.0  0.96820  0.22960  0.39610  1.0000
  C   C14       1.0  0.03180  0.77040  0.60390  1.0000
  C   C15       1.0  0.03440  0.96970  0.31660  1.0000
  C   C16       1.0  0.96560  0.03030  0.68340  1.0000
  C   C17       1.0  0.65280  0.20180  0.94530  1.0000
  C   C18       1.0  0.34720  0.79820  0.05470  1.0000
  C   C19       1.0  0.68560  0.23070  0.85210  1.0000
  C   C20       1.0  0.31440  0.76930  0.14790  1.0000
  H   H7        1.0  0.76400  0.27870  0.85470  1.0000
  H   H8        1.0  0.23600  0.72130  0.14530  1.0000
  C   C21       1.0  0.60120  0.18790  0.75410  1.0000
  C   C22       1.0  0.39880  0.81210  0.24590  1.0000
  C   C23       1.0  0.48330  0.11600  0.75090  1.0000
  C   C24       1.0  0.51670  0.88400  0.24910  1.0000
  C   C25       1.0  0.45190  0.08790  0.84610  1.0000
  C   C26       1.0  0.54810  0.91210  0.15390  1.0000
  H   H9        1.0  0.37360  0.03990  0.84430  1.0000
  H   H10       1.0  0.62640  0.96010  0.15570  1.0000
  C   C27       1.0  0.53620  0.13090  0.94370  1.0000
  C   C28       1.0  0.46380  0.86910  0.05630  1.0000
  H   H11       1.0  0.51470  0.11230  0.00690  1.0000
  H   H12       1.0  0.48530  0.88770  0.99310  1.0000
  C   C29       1.0  0.38240  0.07500  0.64950  1.0000
  C   C30       1.0  0.61760  0.92500  0.35050  1.0000
  C   C31       1.0  0.65240  0.21180  0.65410  1.0000
  C   C32       1.0  0.34760  0.78820  0.34590  1.0000
