data_image0
_chemical_formula_structural       Pd2N4C2H2C2H2C2H2C2H2C6H2C2H2C2H2C2H2S4O12Na2O2H4O2H4
_chemical_formula_sum              "Pd2 N4 C20 H24 S4 O16 Na2"
_cell_length_a       6.9785
_cell_length_b       11.4585
_cell_length_c       14.226
_cell_angle_alpha    80.189
_cell_angle_beta     88.135
_cell_angle_gamma    76.622

_space_group_name_H-M_alt    "P 1"
_space_group_IT_number       1

loop_
  _space_group_symop_operation_xyz
  'x, y, z'

loop_
  _atom_site_type_symbol
  _atom_site_label
  _atom_site_symmetry_multiplicity
  _atom_site_fract_x
  _atom_site_fract_y
  _atom_site_fract_z
  _atom_site_occupancy
  Pd  Pd1       1.0  0.26466  0.52640  0.19562  1.0000
  Pd  Pd2       1.0  0.73534  0.47360  0.80438  1.0000
  N   N1        1.0  0.35300  0.41010  0.09140  1.0000
  N   N2        1.0  0.64700  0.58990  0.90860  1.0000
  N   N3        1.0  0.15940  0.64460  0.06710  1.0000
  N   N4        1.0  0.84060  0.35540  0.93290  1.0000
  C   C1        1.0  0.44210  0.29140  0.10770  1.0000
  C   C2        1.0  0.55790  0.70860  0.89230  1.0000
  H   H1        1.0  0.48910  0.25630  0.16890  1.0000
  H   H2        1.0  0.51090  0.74370  0.83110  1.0000
  C   C3        1.0  0.46730  0.21910  0.03820  1.0000
  C   C4        1.0  0.53270  0.78090  0.96180  1.0000
  H   H3        1.0  0.53090  0.13730  0.05200  1.0000
  H   H4        1.0  0.46910  0.86270  0.94800  1.0000
  C   C5        1.0  0.39640  0.27050  0.94760  1.0000
  C   C6        1.0  0.60360  0.72950  0.05240  1.0000
  H   H5        1.0  0.41130  0.22360  0.89940  1.0000
  H   H6        1.0  0.58870  0.77640  0.10060  1.0000
  C   C7        1.0  0.30280  0.39240  0.92910  1.0000
  C   C8        1.0  0.69720  0.60760  0.07090  1.0000
  H   H7        1.0  0.25560  0.42850  0.86810  1.0000
  H   H8        1.0  0.74440  0.57150  0.13190  1.0000
  C   C9        1.0  0.27990  0.46070  0.00260  1.0000
  C   C10       1.0  0.72010  0.53930  0.99740  1.0000
  C   C11       1.0  0.17960  0.59080  0.98860  1.0000
  C   C12       1.0  0.82040  0.40920  0.01140  1.0000
  C   C13       1.0  0.10870  0.65670  0.90060  1.0000
  C   C14       1.0  0.89130  0.34330  0.09940  1.0000
  H   H9        1.0  0.11980  0.61840  0.84740  1.0000
  H   H10       1.0  0.88020  0.38160  0.15260  1.0000
  C   C15       1.0  0.02180  0.77890  0.89240  1.0000
  C   C16       1.0  0.97820  0.22110  0.10760  1.0000
  H   H11       1.0  0.97150  0.82360  0.83410  1.0000
  H   H12       1.0  0.02850  0.17640  0.16590  1.0000
  C   C17       1.0  0.01060  0.83390  0.97170  1.0000
  C   C18       1.0  0.98940  0.16610  0.02830  1.0000
  H   H13       1.0  0.95660  0.91690  0.96740  1.0000
  H   H14       1.0  0.04340  0.08310  0.03260  1.0000
  C   C19       1.0  0.08110  0.76370  0.05840  1.0000
  C   C20       1.0  0.91890  0.23630  0.94160  1.0000
  H   H15       1.0  0.07360  0.80090  0.11210  1.0000
  H   H16       1.0  0.92640  0.19910  0.88790  1.0000
  S   S1        1.0  0.42772  0.39761  0.31927  1.0000
  S   S2        1.0  0.57228  0.60239  0.68073  1.0000
  S   S3        1.0  0.09292  0.64623  0.29439  1.0000
  S   S4        1.0  0.90708  0.35377  0.70561  1.0000
  O   O1        1.0  0.46260  0.45110  0.40180  1.0000
  O   O2        1.0  0.53740  0.54890  0.59820  1.0000
  O   O3        1.0  0.31710  0.30080  0.34820  1.0000
  O   O4        1.0  0.68290  0.69920  0.65180  1.0000
  O   O5        1.0  0.62150  0.34240  0.27940  1.0000
  O   O6        1.0  0.37850  0.65760  0.72060  1.0000
  O   O7        1.0  0.05450  0.58170  0.38890  1.0000
  O   O8        1.0  0.94550  0.41830  0.61110  1.0000
  O   O9        1.0  0.19620  0.74380  0.30330  1.0000
  O   O10       1.0  0.80380  0.25620  0.69670  1.0000
  O   O11       1.0  0.90180  0.70180  0.24370  1.0000
  O   O12       1.0  0.09820  0.29820  0.75630  1.0000
  Na  Na1       1.0  0.24970  0.49006  0.52973  1.0000
  Na  Na2       1.0  0.75030  0.50994  0.47027  1.0000
  O   O13       1.0  0.40540  0.30650  0.63130  1.0000
  O   O14       1.0  0.59460  0.69350  0.36870  1.0000
  H   H17       1.0  0.32920  0.29430  0.67720  1.0000
  H   H18       1.0  0.67080  0.70570  0.32280  1.0000
  H   H19       1.0  0.52950  0.30400  0.64700  1.0000
  H   H20       1.0  0.47050  0.69600  0.35300  1.0000
  O   O15       1.0  0.08270  0.65690  0.59840  1.0000
  O   O16       1.0  0.91730  0.34310  0.40160  1.0000
  H   H21       1.0  0.97590  0.65510  0.61570  1.0000
  H   H22       1.0  0.02410  0.34490  0.38430  1.0000
  H   H23       1.0  0.14610  0.65340  0.63620  1.0000
  H   H24       1.0  0.85390  0.34660  0.36380  1.0000
