data_image0
_chemical_formula_structural       In10Co2O96C16H8C48H8C16H8C24H8C8H8C24H8C8
_chemical_formula_sum              "In10 Co2 O96 C144 H48"
_cell_length_a       22.788
_cell_length_b       22.788
_cell_length_c       17.154
_cell_angle_alpha    90
_cell_angle_beta     90
_cell_angle_gamma    90

_space_group_name_H-M_alt    "P 1"
_space_group_IT_number       1

loop_
  _space_group_symop_operation_xyz
  'x, y, z'

loop_
  _atom_site_type_symbol
  _atom_site_label
  _atom_site_symmetry_multiplicity
  _atom_site_fract_x
  _atom_site_fract_y
  _atom_site_fract_z
  _atom_site_occupancy
  In  In1       1.0  0.00000  0.50000  0.75000  1.0000
  In  In2       1.0  0.50000  0.00000  0.25000  1.0000
  In  In3       1.0  0.80218  0.29900  0.15944  1.0000
  In  In4       1.0  0.19782  0.70100  0.15944  1.0000
  In  In5       1.0  0.29900  0.19782  0.84056  1.0000
  In  In6       1.0  0.70100  0.80218  0.84056  1.0000
  In  In7       1.0  0.30218  0.79900  0.65944  1.0000
  In  In8       1.0  0.69782  0.20100  0.65944  1.0000
  In  In9       1.0  0.79900  0.69782  0.34056  1.0000
  In  In10      1.0  0.20100  0.30218  0.34056  1.0000
  Co  Co1       1.0  0.00000  0.00000  0.50000  1.0000
  Co  Co2       1.0  0.50000  0.50000  0.00000  1.0000
  O   O1        1.0  0.80120  0.27090  0.03560  1.0000
  O   O2        1.0  0.19880  0.72910  0.03560  1.0000
  O   O3        1.0  0.27090  0.19880  0.96440  1.0000
  O   O4        1.0  0.72910  0.80120  0.96440  1.0000
  O   O5        1.0  0.30120  0.77090  0.53560  1.0000
  O   O6        1.0  0.69880  0.22910  0.53560  1.0000
  O   O7        1.0  0.77090  0.69880  0.46440  1.0000
  O   O8        1.0  0.22910  0.30120  0.46440  1.0000
  O   O9        1.0  0.85500  0.34680  0.05830  1.0000
  O   O10       1.0  0.14500  0.65320  0.05830  1.0000
  O   O11       1.0  0.34680  0.14500  0.94170  1.0000
  O   O12       1.0  0.65320  0.85500  0.94170  1.0000
  O   O13       1.0  0.35500  0.84680  0.55830  1.0000
  O   O14       1.0  0.64500  0.15320  0.55830  1.0000
  O   O15       1.0  0.84680  0.64500  0.44170  1.0000
  O   O16       1.0  0.15320  0.35500  0.44170  1.0000
  O   O17       1.0  0.85440  0.21370  0.18720  1.0000
  O   O18       1.0  0.14560  0.78630  0.18720  1.0000
  O   O19       1.0  0.21370  0.14560  0.81280  1.0000
  O   O20       1.0  0.78630  0.85440  0.81280  1.0000
  O   O21       1.0  0.35440  0.71370  0.68720  1.0000
  O   O22       1.0  0.64560  0.28630  0.68720  1.0000
  O   O23       1.0  0.71370  0.64560  0.31280  1.0000
  O   O24       1.0  0.28630  0.35440  0.31280  1.0000
  O   O25       1.0  0.89350  0.29490  0.21290  1.0000
  O   O26       1.0  0.10650  0.70510  0.21290  1.0000
  O   O27       1.0  0.29490  0.10650  0.78710  1.0000
  O   O28       1.0  0.70510  0.89350  0.78710  1.0000
  O   O29       1.0  0.39350  0.79490  0.71290  1.0000
  O   O30       1.0  0.60650  0.20510  0.71290  1.0000
  O   O31       1.0  0.79490  0.60650  0.28710  1.0000
  O   O32       1.0  0.20510  0.39350  0.28710  1.0000
  O   O33       1.0  0.13780  0.23090  0.36930  1.0000
  O   O34       1.0  0.86220  0.76910  0.36930  1.0000
  O   O35       1.0  0.23090  0.86220  0.63070  1.0000
  O   O36       1.0  0.76910  0.13780  0.63070  1.0000
  O   O37       1.0  0.63780  0.73090  0.86930  1.0000
  O   O38       1.0  0.36220  0.26910  0.86930  1.0000
  O   O39       1.0  0.73090  0.36220  0.13070  1.0000
  O   O40       1.0  0.26910  0.63780  0.13070  1.0000
  O   O41       1.0  0.11100  0.30250  0.28810  1.0000
  O   O42       1.0  0.88900  0.69750  0.28810  1.0000
  O   O43       1.0  0.30250  0.88900  0.71190  1.0000
  O   O44       1.0  0.69750  0.11100  0.71190  1.0000
  O   O45       1.0  0.61100  0.80250  0.78810  1.0000
  O   O46       1.0  0.38900  0.19750  0.78810  1.0000
  O   O47       1.0  0.80250  0.38900  0.21190  1.0000
  O   O48       1.0  0.19750  0.61100  0.21190  1.0000
  O   O49       1.0  0.77410  0.27040  0.67150  1.0000
  O   O50       1.0  0.22590  0.72960  0.67150  1.0000
  O   O51       1.0  0.27040  0.22590  0.32850  1.0000
  O   O52       1.0  0.72960  0.77410  0.32850  1.0000
  O   O53       1.0  0.27410  0.77040  0.17150  1.0000
  O   O54       1.0  0.72590  0.22960  0.17150  1.0000
  O   O55       1.0  0.77040  0.72590  0.82850  1.0000
  O   O56       1.0  0.22960  0.27410  0.82850  1.0000
  O   O57       1.0  0.93440  0.42210  0.72730  1.0000
  O   O58       1.0  0.06560  0.57790  0.72730  1.0000
  O   O59       1.0  0.42210  0.06560  0.27270  1.0000
  O   O60       1.0  0.57790  0.93440  0.27270  1.0000
  O   O61       1.0  0.43440  0.92210  0.22730  1.0000
  O   O62       1.0  0.56560  0.07790  0.22730  1.0000
  O   O63       1.0  0.92210  0.56560  0.77270  1.0000
  O   O64       1.0  0.07790  0.43440  0.77270  1.0000
  O   O65       1.0  0.73720  0.22600  0.77240  1.0000
  O   O66       1.0  0.26280  0.77400  0.77240  1.0000
  O   O67       1.0  0.22600  0.26280  0.22760  1.0000
  O   O68       1.0  0.77400  0.73720  0.22760  1.0000
  O   O69       1.0  0.23720  0.72600  0.27240  1.0000
  O   O70       1.0  0.76280  0.27400  0.27240  1.0000
  O   O71       1.0  0.72600  0.76280  0.72760  1.0000
  O   O72       1.0  0.27400  0.23720  0.72760  1.0000
  O   O73       1.0  0.95400  0.44700  0.83540  1.0000
  O   O74       1.0  0.04600  0.55300  0.83540  1.0000
  O   O75       1.0  0.44700  0.04600  0.16460  1.0000
  O   O76       1.0  0.55300  0.95400  0.16460  1.0000
  O   O77       1.0  0.45400  0.94700  0.33540  1.0000
  O   O78       1.0  0.54600  0.05300  0.33540  1.0000
  O   O79       1.0  0.94700  0.54600  0.66460  1.0000
  O   O80       1.0  0.05300  0.45400  0.66460  1.0000
  O   O81       1.0  0.01050  0.07260  0.43940  1.0000
  O   O82       1.0  0.98950  0.92740  0.43940  1.0000
  O   O83       1.0  0.07260  0.98950  0.56060  1.0000
  O   O84       1.0  0.92740  0.01050  0.56060  1.0000
  O   O85       1.0  0.51050  0.57260  0.93940  1.0000
  O   O86       1.0  0.48950  0.42740  0.93940  1.0000
  O   O87       1.0  0.57260  0.48950  0.06060  1.0000
  O   O88       1.0  0.42740  0.51050  0.06060  1.0000
  O   O89       1.0  0.93220  0.04680  0.36640  1.0000
  O   O90       1.0  0.06780  0.95320  0.36640  1.0000
  O   O91       1.0  0.04680  0.06780  0.63360  1.0000
  O   O92       1.0  0.95320  0.93220  0.63360  1.0000
  O   O93       1.0  0.43220  0.54680  0.86640  1.0000
  O   O94       1.0  0.56780  0.45320  0.86640  1.0000
  O   O95       1.0  0.54680  0.56780  0.13360  1.0000
  O   O96       1.0  0.45320  0.43220  0.13360  1.0000
  C   C1        1.0  0.89110  0.36850  0.82330  1.0000
  C   C2        1.0  0.10890  0.63150  0.82330  1.0000
  C   C3        1.0  0.36850  0.10890  0.17670  1.0000
  C   C4        1.0  0.63150  0.89110  0.17670  1.0000
  C   C5        1.0  0.39110  0.86850  0.32330  1.0000
  C   C6        1.0  0.60890  0.13150  0.32330  1.0000
  C   C7        1.0  0.86850  0.60890  0.67670  1.0000
  C   C8        1.0  0.13150  0.39110  0.67670  1.0000
  C   C9        1.0  0.86160  0.33630  0.77090  1.0000
  C   C10       1.0  0.13840  0.66370  0.77090  1.0000
  C   C11       1.0  0.33630  0.13840  0.22910  1.0000
  C   C12       1.0  0.66370  0.86160  0.22910  1.0000
  C   C13       1.0  0.36160  0.83630  0.27090  1.0000
  C   C14       1.0  0.63840  0.16370  0.27090  1.0000
  C   C15       1.0  0.83630  0.63840  0.72910  1.0000
  C   C16       1.0  0.16370  0.36160  0.72910  1.0000
  H   H1        1.0  0.86850  0.34120  0.71790  1.0000
  H   H2        1.0  0.13150  0.65880  0.71790  1.0000
  H   H3        1.0  0.34120  0.13150  0.28210  1.0000
  H   H4        1.0  0.65880  0.86850  0.28210  1.0000
  H   H5        1.0  0.36850  0.84120  0.21790  1.0000
  H   H6        1.0  0.63150  0.15880  0.21790  1.0000
  H   H7        1.0  0.84120  0.63150  0.78210  1.0000
  H   H8        1.0  0.15880  0.36850  0.78210  1.0000
  C   C17       1.0  0.84160  0.31530  0.92510  1.0000
  C   C18       1.0  0.15840  0.68470  0.92510  1.0000
  C   C19       1.0  0.31530  0.15840  0.07490  1.0000
  C   C20       1.0  0.68470  0.84160  0.07490  1.0000
  C   C21       1.0  0.34160  0.81530  0.42510  1.0000
  C   C22       1.0  0.65840  0.18470  0.42510  1.0000
  C   C23       1.0  0.81530  0.65840  0.57490  1.0000
  C   C24       1.0  0.18470  0.34160  0.57490  1.0000
  C   C25       1.0  0.09950  0.24690  0.33000  1.0000
  C   C26       1.0  0.90050  0.75310  0.33000  1.0000
  C   C27       1.0  0.24690  0.90050  0.67000  1.0000
  C   C28       1.0  0.75310  0.09950  0.67000  1.0000
  C   C29       1.0  0.59950  0.74690  0.83000  1.0000
  C   C30       1.0  0.40050  0.25310  0.83000  1.0000
  C   C31       1.0  0.74690  0.40050  0.17000  1.0000
  C   C32       1.0  0.25310  0.59950  0.17000  1.0000
  C   C33       1.0  0.81860  0.29340  0.79790  1.0000
  C   C34       1.0  0.18140  0.70660  0.79790  1.0000
  C   C35       1.0  0.29340  0.18140  0.20210  1.0000
  C   C36       1.0  0.70660  0.81860  0.20210  1.0000
  C   C37       1.0  0.31860  0.79340  0.29790  1.0000
  C   C38       1.0  0.68140  0.20660  0.29790  1.0000
  C   C39       1.0  0.79340  0.68140  0.70210  1.0000
  C   C40       1.0  0.20660  0.31860  0.70210  1.0000
  C   C41       1.0  0.77240  0.26360  0.74480  1.0000
  C   C42       1.0  0.22760  0.73640  0.74480  1.0000
  C   C43       1.0  0.26360  0.22760  0.25520  1.0000
  C   C44       1.0  0.73640  0.77240  0.25520  1.0000
  C   C45       1.0  0.27240  0.76360  0.24480  1.0000
  C   C46       1.0  0.72760  0.23640  0.24480  1.0000
  C   C47       1.0  0.76360  0.72760  0.75520  1.0000
  C   C48       1.0  0.23640  0.27240  0.75520  1.0000
  C   C49       1.0  0.92680  0.42030  0.79830  1.0000
  C   C50       1.0  0.07320  0.57970  0.79830  1.0000
  C   C51       1.0  0.42030  0.07320  0.20170  1.0000
  C   C52       1.0  0.57970  0.92680  0.20170  1.0000
  C   C53       1.0  0.42680  0.92030  0.29830  1.0000
  C   C54       1.0  0.57320  0.07970  0.29830  1.0000
  C   C55       1.0  0.92030  0.57320  0.70170  1.0000
  C   C56       1.0  0.07970  0.42680  0.70170  1.0000
  C   C57       1.0  0.88460  0.35720  0.90190  1.0000
  C   C58       1.0  0.11540  0.64280  0.90190  1.0000
  C   C59       1.0  0.35720  0.11540  0.09810  1.0000
  C   C60       1.0  0.64280  0.88460  0.09810  1.0000
  C   C61       1.0  0.38460  0.85720  0.40190  1.0000
  C   C62       1.0  0.61540  0.14280  0.40190  1.0000
  C   C63       1.0  0.85720  0.61540  0.59810  1.0000
  C   C64       1.0  0.14280  0.38460  0.59810  1.0000
  H   H9        1.0  0.90760  0.37640  0.93870  1.0000
  H   H10       1.0  0.09240  0.62360  0.93870  1.0000
  H   H11       1.0  0.37640  0.09240  0.06130  1.0000
  H   H12       1.0  0.62360  0.90760  0.06130  1.0000
  H   H13       1.0  0.40760  0.87640  0.43870  1.0000
  H   H14       1.0  0.59240  0.12360  0.43870  1.0000
  H   H15       1.0  0.87640  0.59240  0.56130  1.0000
  H   H16       1.0  0.12360  0.40760  0.56130  1.0000
  C   C65       1.0  0.83000  0.31440  0.01130  1.0000
  C   C66       1.0  0.17000  0.68560  0.01130  1.0000
  C   C67       1.0  0.31440  0.17000  0.98870  1.0000
  C   C68       1.0  0.68560  0.83000  0.98870  1.0000
  C   C69       1.0  0.33000  0.81440  0.51130  1.0000
  C   C70       1.0  0.67000  0.18560  0.51130  1.0000
  C   C71       1.0  0.81440  0.67000  0.48870  1.0000
  C   C72       1.0  0.18560  0.33000  0.48870  1.0000
  C   C73       1.0  0.81580  0.28260  0.87450  1.0000
  C   C74       1.0  0.18420  0.71740  0.87450  1.0000
  C   C75       1.0  0.28260  0.18420  0.12550  1.0000
  C   C76       1.0  0.71740  0.81580  0.12550  1.0000
  C   C77       1.0  0.31580  0.78260  0.37450  1.0000
  C   C78       1.0  0.68420  0.21740  0.37450  1.0000
  C   C79       1.0  0.78260  0.68420  0.62550  1.0000
  C   C80       1.0  0.21740  0.31580  0.62550  1.0000
  H   H17       1.0  0.79450  0.25040  0.89170  1.0000
  H   H18       1.0  0.20550  0.74960  0.89170  1.0000
  H   H19       1.0  0.25040  0.20550  0.10830  1.0000
  H   H20       1.0  0.74960  0.79450  0.10830  1.0000
  H   H21       1.0  0.29450  0.75040  0.39170  1.0000
  H   H22       1.0  0.70550  0.24960  0.39170  1.0000
  H   H23       1.0  0.75040  0.70550  0.60830  1.0000
  H   H24       1.0  0.24960  0.29450  0.60830  1.0000
  C   C81       1.0  0.03950  0.22170  0.32310  1.0000
  C   C82       1.0  0.96050  0.77830  0.32310  1.0000
  C   C83       1.0  0.22170  0.96050  0.67690  1.0000
  C   C84       1.0  0.77830  0.03950  0.67690  1.0000
  C   C85       1.0  0.53950  0.72170  0.82310  1.0000
  C   C86       1.0  0.46050  0.27830  0.82310  1.0000
  C   C87       1.0  0.72170  0.46050  0.17690  1.0000
  C   C88       1.0  0.27830  0.53950  0.17690  1.0000
  C   C89       1.0  0.97920  0.13980  0.34920  1.0000
  C   C90       1.0  0.02080  0.86020  0.34920  1.0000
  C   C91       1.0  0.13980  0.02080  0.65080  1.0000
  C   C92       1.0  0.86020  0.97920  0.65080  1.0000
  C   C93       1.0  0.47920  0.63980  0.84920  1.0000
  C   C94       1.0  0.52080  0.36020  0.84920  1.0000
  C   C95       1.0  0.63980  0.52080  0.15080  1.0000
  C   C96       1.0  0.36020  0.47920  0.15080  1.0000
  C   C97       1.0  0.02860  0.17590  0.35430  1.0000
  C   C98       1.0  0.97140  0.82410  0.35430  1.0000
  C   C99       1.0  0.17590  0.97140  0.64570  1.0000
  C   C100      1.0  0.82410  0.02860  0.64570  1.0000
  C   C101      1.0  0.52860  0.67590  0.85430  1.0000
  C   C102      1.0  0.47140  0.32410  0.85430  1.0000
  C   C103      1.0  0.67590  0.47140  0.14570  1.0000
  C   C104      1.0  0.32410  0.52860  0.14570  1.0000
  H   H25       1.0  0.05790  0.16210  0.38740  1.0000
  H   H26       1.0  0.94210  0.83790  0.38740  1.0000
  H   H27       1.0  0.16210  0.94210  0.61260  1.0000
  H   H28       1.0  0.83790  0.05790  0.61260  1.0000
  H   H29       1.0  0.55790  0.66210  0.88740  1.0000
  H   H30       1.0  0.44210  0.33790  0.88740  1.0000
  H   H31       1.0  0.66210  0.44210  0.11260  1.0000
  H   H32       1.0  0.33790  0.55790  0.11260  1.0000
  C   C105      1.0  0.99260  0.24890  0.27070  1.0000
  C   C106      1.0  0.00740  0.75110  0.27070  1.0000
  C   C107      1.0  0.24890  0.00740  0.72930  1.0000
  C   C108      1.0  0.75110  0.99260  0.72930  1.0000
  C   C109      1.0  0.49260  0.74890  0.77070  1.0000
  C   C110      1.0  0.50740  0.25110  0.77070  1.0000
  C   C111      1.0  0.74890  0.50740  0.22930  1.0000
  C   C112      1.0  0.25110  0.49260  0.22930  1.0000
  H   H33       1.0  0.99680  0.28600  0.24900  1.0000
  H   H34       1.0  0.00320  0.71400  0.24900  1.0000
  H   H35       1.0  0.28600  0.00320  0.75100  1.0000
  H   H36       1.0  0.71400  0.99680  0.75100  1.0000
  H   H37       1.0  0.49680  0.78600  0.74900  1.0000
  H   H38       1.0  0.50320  0.21400  0.74900  1.0000
  H   H39       1.0  0.78600  0.50320  0.25100  1.0000
  H   H40       1.0  0.21400  0.49680  0.25100  1.0000
  C   C113      1.0  0.94590  0.21660  0.25810  1.0000
  C   C114      1.0  0.05410  0.78340  0.25810  1.0000
  C   C115      1.0  0.21660  0.05410  0.74190  1.0000
  C   C116      1.0  0.78340  0.94590  0.74190  1.0000
  C   C117      1.0  0.44590  0.71660  0.75810  1.0000
  C   C118      1.0  0.55410  0.28340  0.75810  1.0000
  C   C119      1.0  0.71660  0.55410  0.24190  1.0000
  C   C120      1.0  0.28340  0.44590  0.24190  1.0000
  C   C121      1.0  0.97180  0.07520  0.38840  1.0000
  C   C122      1.0  0.02820  0.92480  0.38840  1.0000
  C   C123      1.0  0.07520  0.02820  0.61160  1.0000
  C   C124      1.0  0.92480  0.97180  0.61160  1.0000
  C   C125      1.0  0.47180  0.57520  0.88840  1.0000
  C   C126      1.0  0.52820  0.42480  0.88840  1.0000
  C   C127      1.0  0.57520  0.52820  0.11160  1.0000
  C   C128      1.0  0.42480  0.47180  0.11160  1.0000
  C   C129      1.0  0.93540  0.16090  0.29300  1.0000
  C   C130      1.0  0.06460  0.83910  0.29300  1.0000
  C   C131      1.0  0.16090  0.06460  0.70700  1.0000
  C   C132      1.0  0.83910  0.93540  0.70700  1.0000
  C   C133      1.0  0.43540  0.66090  0.79300  1.0000
  C   C134      1.0  0.56460  0.33910  0.79300  1.0000
  C   C135      1.0  0.66090  0.56460  0.20700  1.0000
  C   C136      1.0  0.33910  0.43540  0.20700  1.0000
  H   H41       1.0  0.90230  0.13890  0.28080  1.0000
  H   H42       1.0  0.09770  0.86110  0.28080  1.0000
  H   H43       1.0  0.13890  0.09770  0.71920  1.0000
  H   H44       1.0  0.86110  0.90230  0.71920  1.0000
  H   H45       1.0  0.40230  0.63890  0.78080  1.0000
  H   H46       1.0  0.59770  0.36110  0.78080  1.0000
  H   H47       1.0  0.63890  0.59770  0.21920  1.0000
  H   H48       1.0  0.36110  0.40230  0.21920  1.0000
  C   C137      1.0  0.89650  0.24720  0.20650  1.0000
  C   C138      1.0  0.10350  0.75280  0.20650  1.0000
  C   C139      1.0  0.24720  0.10350  0.79350  1.0000
  C   C140      1.0  0.75280  0.89650  0.79350  1.0000
  C   C141      1.0  0.39650  0.74720  0.70650  1.0000
  C   C142      1.0  0.60350  0.25280  0.70650  1.0000
  C   C143      1.0  0.74720  0.60350  0.29350  1.0000
  C   C144      1.0  0.25280  0.39650  0.29350  1.0000
