data_image0
_chemical_formula_structural       Eu2O2N2C2O2C2O2C2O2C2H2O2C2O2C2H2O2C2O2C2H2O2C2H4C4H4C2H4
_chemical_formula_sum              "Eu2 O18 N2 C24 H18"
_cell_length_a       9.6579
_cell_length_b       10.1549
_cell_length_c       10.6914
_cell_angle_alpha    106.576
_cell_angle_beta     107.444
_cell_angle_gamma    110.66

_space_group_name_H-M_alt    "P 1"
_space_group_IT_number       1

loop_
  _space_group_symop_operation_xyz
  'x, y, z'

loop_
  _atom_site_type_symbol
  _atom_site_label
  _atom_site_symmetry_multiplicity
  _atom_site_fract_x
  _atom_site_fract_y
  _atom_site_fract_z
  _atom_site_occupancy
  Eu  Eu1       1.0  0.83500  0.06060  0.88546  1.0000
  Eu  Eu2       1.0  0.16500  0.93940  0.11454  1.0000
  O   O1        1.0  0.84290  0.92900  0.68270  1.0000
  O   O2        1.0  0.15710  0.07100  0.31730  1.0000
  N   N1        1.0  0.74220  0.62780  0.06790  1.0000
  N   N2        1.0  0.25780  0.37220  0.93210  1.0000
  C   C1        1.0  0.86460  0.84900  0.58640  1.0000
  C   C2        1.0  0.13540  0.15100  0.41360  1.0000
  O   O3        1.0  0.94530  0.77940  0.60600  1.0000
  O   O4        1.0  0.05470  0.22060  0.39400  1.0000
  C   C3        1.0  0.45640  0.91000  0.21460  1.0000
  C   C4        1.0  0.54360  0.09000  0.78540  1.0000
  O   O5        1.0  0.43180  0.99210  0.31210  1.0000
  O   O6        1.0  0.56820  0.00790  0.68790  1.0000
  C   C5        1.0  0.77800  0.82800  0.43300  1.0000
  C   C6        1.0  0.22200  0.17200  0.56700  1.0000
  O   O7        1.0  0.36930  0.86750  0.08300  1.0000
  O   O8        1.0  0.63070  0.13250  0.91700  1.0000
  C   C7        1.0  0.66900  0.88840  0.40200  1.0000
  C   C8        1.0  0.33100  0.11160  0.59800  1.0000
  H   H1        1.0  0.65280  0.94750  0.47750  1.0000
  H   H2        1.0  0.34720  0.05250  0.52250  1.0000
  O   O9        1.0  0.06590  0.54320  0.22970  1.0000
  O   O10       1.0  0.93410  0.45680  0.77030  1.0000
  C   C9        1.0  0.58400  0.86000  0.25710  1.0000
  C   C10       1.0  0.41600  0.14000  0.74290  1.0000
  O   O11       1.0  0.07700  0.71790  0.14620  1.0000
  O   O12       1.0  0.92300  0.28210  0.85380  1.0000
  C   C11       1.0  0.61020  0.77590  0.14810  1.0000
  C   C12       1.0  0.38980  0.22410  0.85190  1.0000
  H   H3        1.0  0.55300  0.75940  0.05100  1.0000
  H   H4        1.0  0.44700  0.24060  0.94900  1.0000
  O   O13       1.0  0.87640  0.88730  0.00800  1.0000
  O   O14       1.0  0.12360  0.11270  0.99200  1.0000
  C   C13       1.0  0.71890  0.71450  0.17720  1.0000
  C   C14       1.0  0.28110  0.28550  0.82280  1.0000
  O   O15       1.0  0.63410  0.79600  0.82930  1.0000
  O   O16       1.0  0.36590  0.20400  0.17070  1.0000
  C   C15       1.0  0.80240  0.74330  0.32330  1.0000
  C   C16       1.0  0.19760  0.25670  0.67670  1.0000
  H   H5        1.0  0.87710  0.70340  0.34660  1.0000
  H   H6        1.0  0.12290  0.29660  0.65340  1.0000
  O   O17       1.0  0.95200  0.22940  0.13880  1.0000
  O   O18       1.0  0.04800  0.77060  0.86120  1.0000
  C   C17       1.0  0.81050  0.52420  0.08880  1.0000
  C   C18       1.0  0.18950  0.47580  0.91120  1.0000
  H   H7        1.0  0.76880  0.47770  0.14830  1.0000
  H   H8        1.0  0.23120  0.52230  0.85170  1.0000
  H   H9        1.0  0.76820  0.43750  0.99240  1.0000
  H   H10       1.0  0.23180  0.56250  0.00760  1.0000
  C   C19       1.0  0.00000  0.60180  0.16260  1.0000
  C   C20       1.0  0.00000  0.39820  0.83740  1.0000
  C   C21       1.0  0.67360  0.61960  0.92350  1.0000
  C   C22       1.0  0.32640  0.38040  0.07650  1.0000
  H   H11       1.0  0.70410  0.55520  0.85990  1.0000
  H   H12       1.0  0.29590  0.44480  0.14010  1.0000
  H   H13       1.0  0.55150  0.56610  0.88230  1.0000
  H   H14       1.0  0.44850  0.43390  0.11770  1.0000
  C   C23       1.0  0.73090  0.77700  0.92080  1.0000
  C   C24       1.0  0.26910  0.22300  0.07920  1.0000
  H   H15       1.0  0.98300  0.32970  0.17410  1.0000
  H   H16       1.0  0.01700  0.67030  0.82590  1.0000
  H   H17       1.0  0.97240  0.21090  0.21380  1.0000
  H   H18       1.0  0.02760  0.78910  0.78620  1.0000
