data_image0
_chemical_formula_structural       W2Br4C2H2C2H2C4H2C2H2C2H2C2H2C4H2C2H2C2H2C2H2C4H2C2H2Cu6N6O2S6
_chemical_formula_sum              "W2 Br4 C30 H24 Cu6 N6 O2 S6"
_cell_length_a       9.843
_cell_length_b       12.974
_cell_length_c       17.362
_cell_angle_alpha    97.65
_cell_angle_beta     101.5
_cell_angle_gamma    108.65

_space_group_name_H-M_alt    "P 1"
_space_group_IT_number       1

loop_
  _space_group_symop_operation_xyz
  'x, y, z'

loop_
  _atom_site_type_symbol
  _atom_site_label
  _atom_site_symmetry_multiplicity
  _atom_site_fract_x
  _atom_site_fract_y
  _atom_site_fract_z
  _atom_site_occupancy
  W   W1        1.0  0.75977  0.71848  0.69904  1.0000
  W   W2        1.0  0.24023  0.28152  0.30096  1.0000
  Br  Br1       1.0  0.99688  0.64173  0.93951  1.0000
  Br  Br2       1.0  0.00312  0.35827  0.06049  1.0000
  Br  Br3       1.0  0.07681  0.10878  0.72683  1.0000
  Br  Br4       1.0  0.92319  0.89122  0.27317  1.0000
  C   C1        1.0  0.17030  0.05150  0.07220  1.0000
  C   C2        1.0  0.82970  0.94850  0.92780  1.0000
  H   H1        1.0  0.13970  0.02510  0.11540  1.0000
  H   H2        1.0  0.86030  0.97490  0.88460  1.0000
  C   C3        1.0  0.22580  0.98690  0.02530  1.0000
  C   C4        1.0  0.77420  0.01310  0.97470  1.0000
  H   H3        1.0  0.23520  0.92200  0.03870  1.0000
  H   H4        1.0  0.76480  0.07800  0.96130  1.0000
  C   C5        1.0  0.26550  0.02080  0.96030  1.0000
  C   C6        1.0  0.73450  0.97920  0.03970  1.0000
  C   C7        1.0  0.24310  0.11500  0.94430  1.0000
  C   C8        1.0  0.75690  0.88500  0.05570  1.0000
  H   H5        1.0  0.26530  0.13830  0.89840  1.0000
  H   H6        1.0  0.73470  0.86170  0.10160  1.0000
  C   C9        1.0  0.18870  0.17890  0.99280  1.0000
  C   C10       1.0  0.81130  0.82110  0.00720  1.0000
  H   H7        1.0  0.17420  0.24220  0.97920  1.0000
  H   H8        1.0  0.82580  0.75780  0.02080  1.0000
  C   C11       1.0  0.44100  0.94060  0.79930  1.0000
  C   C12       1.0  0.55900  0.05940  0.20070  1.0000
  H   H9        1.0  0.47360  0.96970  0.75730  1.0000
  H   H10       1.0  0.52640  0.03030  0.24270  1.0000
  C   C13       1.0  0.37770  0.00040  0.84430  1.0000
  C   C14       1.0  0.62230  0.99960  0.15570  1.0000
  H   H11       1.0  0.36730  0.06540  0.83170  1.0000
  H   H12       1.0  0.63270  0.93460  0.16830  1.0000
  C   C15       1.0  0.33040  0.96010  0.90860  1.0000
  C   C16       1.0  0.66960  0.03990  0.09140  1.0000
  C   C17       1.0  0.34190  0.86110  0.91920  1.0000
  C   C18       1.0  0.65810  0.13890  0.08080  1.0000
  H   H13       1.0  0.30600  0.82920  0.95940  1.0000
  H   H14       1.0  0.69400  0.17080  0.04060  1.0000
  C   C19       1.0  0.40570  0.80670  0.87160  1.0000
  C   C20       1.0  0.59430  0.19330  0.12840  1.0000
  H   H15       1.0  0.41290  0.73970  0.88160  1.0000
  H   H16       1.0  0.58710  0.26030  0.11840  1.0000
  C   C21       1.0  0.20260  0.67260  0.65210  1.0000
  C   C22       1.0  0.79740  0.32740  0.34790  1.0000
  H   H17       1.0  0.19930  0.72160  0.69540  1.0000
  H   H18       1.0  0.80070  0.27840  0.30460  1.0000
  C   C23       1.0  0.07000  0.60670  0.59690  1.0000
  C   C24       1.0  0.93000  0.39330  0.40310  1.0000
  H   H19       1.0  0.98090  0.61090  0.60460  1.0000
  H   H20       1.0  0.01910  0.38910  0.39540  1.0000
  C   C25       1.0  0.06980  0.53460  0.53040  1.0000
  C   C26       1.0  0.93020  0.46540  0.46960  1.0000
  C   C27       1.0  0.20470  0.53230  0.52620  1.0000
  C   C28       1.0  0.79530  0.46770  0.47380  1.0000
  H   H21       1.0  0.21170  0.48510  0.48300  1.0000
  H   H22       1.0  0.78830  0.51490  0.51700  1.0000
  C   C29       1.0  0.32880  0.59660  0.58290  1.0000
  C   C30       1.0  0.67120  0.40340  0.41710  1.0000
  H   H23       1.0  0.41810  0.59000  0.57770  1.0000
  H   H24       1.0  0.58190  0.41000  0.42230  1.0000
  Cu  Cu1       1.0  0.53154  0.76241  0.73550  1.0000
  Cu  Cu2       1.0  0.46846  0.23759  0.26450  1.0000
  Cu  Cu3       1.0  0.87757  0.73523  0.85708  1.0000
  Cu  Cu4       1.0  0.12243  0.26477  0.14292  1.0000
  Cu  Cu5       1.0  0.92125  0.93178  0.71867  1.0000
  Cu  Cu6       1.0  0.07875  0.06822  0.28133  1.0000
  N   N1        1.0  0.45880  0.84750  0.81030  1.0000
  N   N2        1.0  0.54120  0.15250  0.18970  1.0000
  N   N3        1.0  0.33250  0.66990  0.64680  1.0000
  N   N4        1.0  0.66750  0.33010  0.35320  1.0000
  N   N5        1.0  0.15740  0.14570  0.06060  1.0000
  N   N6        1.0  0.84260  0.85430  0.93940  1.0000
  O   O1        1.0  0.74000  0.61440  0.61977  1.0000
  O   O2        1.0  0.26000  0.38560  0.38023  1.0000
  S   S1        1.0  0.63101  0.64011  0.78262  1.0000
  S   S2        1.0  0.36899  0.35989  0.21738  1.0000
  S   S3        1.0  0.00029  0.80181  0.76532  1.0000
  S   S4        1.0  0.99971  0.19819  0.23468  1.0000
  S   S5        1.0  0.67760  0.85184  0.65851  1.0000
  S   S6        1.0  0.32240  0.14816  0.34149  1.0000
