data_image0
_chemical_formula_structural       Tb2O24N4C4H2C4H2C4H2C8H2C4H2C4H2C4
_chemical_formula_sum              "Tb2 O24 N4 C32 H12"
_cell_length_a       8.6598
_cell_length_b       9.3878
_cell_length_c       13.796
_cell_angle_alpha    85.1
_cell_angle_beta     78.24
_cell_angle_gamma    74.21

_space_group_name_H-M_alt    "P 1"
_space_group_IT_number       1

loop_
  _space_group_symop_operation_xyz
  'x, y, z'

loop_
  _atom_site_type_symbol
  _atom_site_label
  _atom_site_symmetry_multiplicity
  _atom_site_fract_x
  _atom_site_fract_y
  _atom_site_fract_z
  _atom_site_occupancy
  Tb  Tb1       1.0  0.66799  0.55396  0.58352  1.0000
  Tb  Tb2       1.0  0.33201  0.44604  0.41648  1.0000
  O   O1        1.0  0.43040  0.70950  0.68360  1.0000
  O   O2        1.0  0.56960  0.29050  0.31640  1.0000
  O   O3        1.0  0.49900  0.78810  0.53070  1.0000
  O   O4        1.0  0.50100  0.21190  0.46930  1.0000
  O   O5        1.0  0.14740  0.30890  0.46340  1.0000
  O   O6        1.0  0.85260  0.69110  0.53660  1.0000
  O   O7        1.0  0.88460  0.35970  0.52980  1.0000
  O   O8        1.0  0.11540  0.64030  0.47020  1.0000
  O   O9        1.0  0.67130  0.95560  0.70440  1.0000
  O   O10       1.0  0.32870  0.04440  0.29560  1.0000
  O   O11       1.0  0.82490  0.80230  0.79060  1.0000
  O   O12       1.0  0.17510  0.19770  0.20940  1.0000
  O   O13       1.0  0.54190  0.36880  0.66860  1.0000
  O   O14       1.0  0.45810  0.63120  0.33140  1.0000
  O   O15       1.0  0.36130  0.48110  0.57610  1.0000
  O   O16       1.0  0.63870  0.51890  0.42390  1.0000
  O   O17       1.0  0.76990  0.50430  0.72670  1.0000
  O   O18       1.0  0.23010  0.49570  0.27330  1.0000
  O   O19       1.0  0.72840  0.36350  0.86230  1.0000
  O   O20       1.0  0.27160  0.63650  0.13770  1.0000
  O   O21       1.0  0.16820  0.92930  0.91480  1.0000
  O   O22       1.0  0.83180  0.07070  0.08520  1.0000
  O   O23       1.0  0.40090  0.97060  0.90320  1.0000
  O   O24       1.0  0.59910  0.02940  0.09680  1.0000
  N   N1        1.0  0.80340  0.90020  0.72880  1.0000
  N   N2        1.0  0.19660  0.09980  0.27120  1.0000
  N   N3        1.0  0.26470  0.00190  0.88520  1.0000
  N   N4        1.0  0.73530  0.99810  0.11480  1.0000
  C   C1        1.0  0.23190  0.89960  0.61760  1.0000
  C   C2        1.0  0.76810  0.10040  0.38240  1.0000
  C   C3        1.0  0.20920  0.03420  0.56440  1.0000
  C   C4        1.0  0.79080  0.96580  0.43560  1.0000
  H   H1        1.0  0.29830  0.06160  0.52560  1.0000
  H   H2        1.0  0.70170  0.93840  0.47440  1.0000
  C   C5        1.0  0.05250  0.12760  0.56970  1.0000
  C   C6        1.0  0.94750  0.87240  0.43030  1.0000
  C   C7        1.0  0.91770  0.08510  0.62370  1.0000
  C   C8        1.0  0.08230  0.91490  0.37630  1.0000
  H   H3        1.0  0.81250  0.14580  0.62590  1.0000
  H   H4        1.0  0.18750  0.85420  0.37410  1.0000
  C   C9        1.0  0.94550  0.94840  0.67440  1.0000
  C   C10       1.0  0.05450  0.05160  0.32560  1.0000
  C   C11       1.0  0.09940  0.85800  0.67500  1.0000
  C   C12       1.0  0.90060  0.14200  0.32500  1.0000
  H   H5        1.0  0.11440  0.77060  0.71320  1.0000
  H   H6        1.0  0.88560  0.22940  0.28680  1.0000
  C   C13       1.0  0.39770  0.79420  0.61050  1.0000
  C   C14       1.0  0.60230  0.20580  0.38950  1.0000
  C   C15       1.0  0.02630  0.27690  0.51680  1.0000
  C   C16       1.0  0.97370  0.72310  0.48320  1.0000
  C   C17       1.0  0.27860  0.32470  0.70980  1.0000
  C   C18       1.0  0.72140  0.67530  0.29020  1.0000
  C   C19       1.0  0.11160  0.39100  0.71410  1.0000
  C   C20       1.0  0.88840  0.60900  0.28590  1.0000
  H   H7        1.0  0.07750  0.47460  0.67470  1.0000
  H   H8        1.0  0.92250  0.52540  0.32530  1.0000
  C   C21       1.0  0.99790  0.33120  0.77730  1.0000
  C   C22       1.0  0.00210  0.66880  0.22270  1.0000
  C   C23       1.0  0.04750  0.20120  0.83280  1.0000
  C   C24       1.0  0.95250  0.79880  0.16720  1.0000
  H   H9        1.0  0.97150  0.15880  0.87390  1.0000
  H   H10       1.0  0.02850  0.84120  0.12610  1.0000
  C   C25       1.0  0.21150  0.13820  0.82480  1.0000
  C   C26       1.0  0.78850  0.86180  0.17520  1.0000
  C   C27       1.0  0.33040  0.19670  0.76640  1.0000
  C   C28       1.0  0.66960  0.80330  0.23360  1.0000
  H   H11       1.0  0.44080  0.15240  0.76490  1.0000
  H   H12       1.0  0.55920  0.84760  0.23510  1.0000
  C   C29       1.0  0.40450  0.39270  0.64660  1.0000
  C   C30       1.0  0.59550  0.60730  0.35340  1.0000
  C   C31       1.0  0.81760  0.40500  0.78880  1.0000
  C   C32       1.0  0.18240  0.59500  0.21120  1.0000
