data_image0
_chemical_formula_structural       Sm2O24N4C4H2C4H2C4H2C8H2C4H2C4H2C4
_chemical_formula_sum              "Sm2 O24 N4 C32 H12"
_cell_length_a       8.6638
_cell_length_b       9.3886
_cell_length_c       13.781
_cell_angle_alpha    85.33
_cell_angle_beta     78.1
_cell_angle_gamma    74.43

_space_group_name_H-M_alt    "P 1"
_space_group_IT_number       1

loop_
  _space_group_symop_operation_xyz
  'x, y, z'

loop_
  _atom_site_type_symbol
  _atom_site_label
  _atom_site_symmetry_multiplicity
  _atom_site_fract_x
  _atom_site_fract_y
  _atom_site_fract_z
  _atom_site_occupancy
  Sm  Sm1       1.0  0.66362  0.55352  0.58346  1.0000
  Sm  Sm2       1.0  0.33638  0.44648  0.41654  1.0000
  O   O1        1.0  0.88220  0.35600  0.52600  1.0000
  O   O2        1.0  0.11780  0.64400  0.47400  1.0000
  O   O3        1.0  0.14650  0.30920  0.46530  1.0000
  O   O4        1.0  0.85350  0.69080  0.53470  1.0000
  O   O5        1.0  0.42540  0.71410  0.68660  1.0000
  O   O6        1.0  0.57460  0.28590  0.31340  1.0000
  O   O7        1.0  0.49370  0.79030  0.53170  1.0000
  O   O8        1.0  0.50630  0.20970  0.46830  1.0000
  O   O9        1.0  0.82060  0.80810  0.79290  1.0000
  O   O10       1.0  0.17940  0.19190  0.20710  1.0000
  O   O11       1.0  0.66750  0.95540  0.70370  1.0000
  O   O12       1.0  0.33250  0.04460  0.29630  1.0000
  O   O13       1.0  0.54260  0.36240  0.67620  1.0000
  O   O14       1.0  0.45740  0.63760  0.32380  1.0000
  O   O15       1.0  0.36890  0.47740  0.58080  1.0000
  O   O16       1.0  0.63110  0.52260  0.41920  1.0000
  O   O17       1.0  0.77230  0.50410  0.72730  1.0000
  O   O18       1.0  0.22770  0.49590  0.27270  1.0000
  O   O19       1.0  0.72690  0.36500  0.86340  1.0000
  O   O20       1.0  0.27310  0.63500  0.13660  1.0000
  O   O21       1.0  0.15950  0.92730  0.91470  1.0000
  O   O22       1.0  0.84050  0.07270  0.08530  1.0000
  O   O23       1.0  0.39330  0.96870  0.90640  1.0000
  O   O24       1.0  0.60670  0.03130  0.09360  1.0000
  N   N1        1.0  0.79900  0.90300  0.72990  1.0000
  N   N2        1.0  0.20100  0.09700  0.27010  1.0000
  N   N3        1.0  0.25720  0.00080  0.88700  1.0000
  N   N4        1.0  0.74280  0.99920  0.11300  1.0000
  C   C1        1.0  0.04970  0.12860  0.56980  1.0000
  C   C2        1.0  0.95030  0.87140  0.43020  1.0000
  C   C3        1.0  0.20470  0.03590  0.56590  1.0000
  C   C4        1.0  0.79530  0.96410  0.43410  1.0000
  H   H1        1.0  0.29430  0.06300  0.52720  1.0000
  H   H2        1.0  0.70570  0.93700  0.47280  1.0000
  C   C5        1.0  0.22710  0.90310  0.61920  1.0000
  C   C6        1.0  0.77290  0.09690  0.38080  1.0000
  C   C7        1.0  0.09420  0.86140  0.67630  1.0000
  C   C8        1.0  0.90580  0.13860  0.32370  1.0000
  H   H3        1.0  0.10810  0.77440  0.71480  1.0000
  H   H4        1.0  0.89190  0.22560  0.28520  1.0000
  C   C9        1.0  0.94310  0.95100  0.67460  1.0000
  C   C10       1.0  0.05690  0.04900  0.32540  1.0000
  C   C11       1.0  0.91440  0.08660  0.62440  1.0000
  C   C12       1.0  0.08560  0.91340  0.37560  1.0000
  H   H5        1.0  0.80920  0.14690  0.62720  1.0000
  H   H6        1.0  0.19080  0.85310  0.37280  1.0000
  C   C13       1.0  0.02340  0.27690  0.51690  1.0000
  C   C14       1.0  0.97660  0.72310  0.48310  1.0000
  C   C15       1.0  0.39290  0.79810  0.61220  1.0000
  C   C16       1.0  0.60710  0.20190  0.38780  1.0000
  C   C17       1.0  0.27950  0.32050  0.71170  1.0000
  C   C18       1.0  0.72050  0.67950  0.28830  1.0000
  C   C19       1.0  0.11540  0.38690  0.71510  1.0000
  C   C20       1.0  0.88460  0.61310  0.28490  1.0000
  H   H7        1.0  0.08370  0.47040  0.67550  1.0000
  H   H8        1.0  0.91630  0.52960  0.32450  1.0000
  C   C21       1.0  0.99660  0.32860  0.77820  1.0000
  C   C22       1.0  0.00340  0.67140  0.22180  1.0000
  C   C23       1.0  0.04530  0.19950  0.83360  1.0000
  C   C24       1.0  0.95470  0.80050  0.16640  1.0000
  H   H9        1.0  0.96800  0.15850  0.87470  1.0000
  H   H10       1.0  0.03200  0.84150  0.12530  1.0000
  C   C25       1.0  0.20560  0.13490  0.82690  1.0000
  C   C26       1.0  0.79440  0.86510  0.17310  1.0000
  C   C27       1.0  0.32770  0.19360  0.76880  1.0000
  C   C28       1.0  0.67230  0.80640  0.23120  1.0000
  H   H11       1.0  0.43760  0.14910  0.76840  1.0000
  H   H12       1.0  0.56240  0.85090  0.23160  1.0000
  C   C29       1.0  0.40740  0.38880  0.65120  1.0000
  C   C30       1.0  0.59260  0.61120  0.34880  1.0000
  C   C31       1.0  0.81780  0.40450  0.78980  1.0000
  C   C32       1.0  0.18220  0.59550  0.21020  1.0000
