data_image0
_chemical_formula_structural       Eu4O32C4H4C8H8C4H4
_chemical_formula_sum              "Eu4 O32 C16 H16"
_cell_length_a       6.7427
_cell_length_b       18.653
_cell_length_c       8.546
_cell_angle_alpha    90
_cell_angle_beta     90
_cell_angle_gamma    90

_space_group_name_H-M_alt    "P 1"
_space_group_IT_number       1

loop_
  _space_group_symop_operation_xyz
  'x, y, z'

loop_
  _atom_site_type_symbol
  _atom_site_label
  _atom_site_symmetry_multiplicity
  _atom_site_fract_x
  _atom_site_fract_y
  _atom_site_fract_z
  _atom_site_occupancy
  Eu  Eu1       1.0  0.50000  0.64250  0.25000  1.0000
  Eu  Eu2       1.0  0.50000  0.35750  0.75000  1.0000
  Eu  Eu3       1.0  0.00000  0.14250  0.25000  1.0000
  Eu  Eu4       1.0  0.00000  0.85750  0.75000  1.0000
  O   O1        1.0  0.83710  0.59332  0.22850  1.0000
  O   O2        1.0  0.16290  0.40668  0.72850  1.0000
  O   O3        1.0  0.16290  0.59332  0.27150  1.0000
  O   O4        1.0  0.83710  0.40668  0.77150  1.0000
  O   O5        1.0  0.33710  0.09332  0.22850  1.0000
  O   O6        1.0  0.66290  0.90668  0.72850  1.0000
  O   O7        1.0  0.66290  0.09332  0.27150  1.0000
  O   O8        1.0  0.33710  0.90668  0.77150  1.0000
  O   O9        1.0  0.82280  0.81717  0.98440  1.0000
  O   O10       1.0  0.17720  0.18283  0.48440  1.0000
  O   O11       1.0  0.17720  0.81717  0.51560  1.0000
  O   O12       1.0  0.82280  0.18283  0.01560  1.0000
  O   O13       1.0  0.32280  0.31717  0.98440  1.0000
  O   O14       1.0  0.67720  0.68283  0.48440  1.0000
  O   O15       1.0  0.67720  0.31717  0.51560  1.0000
  O   O16       1.0  0.32280  0.68283  0.01560  1.0000
  O   O17       1.0  0.68180  0.74296  0.15300  1.0000
  O   O18       1.0  0.31820  0.25704  0.65300  1.0000
  O   O19       1.0  0.31820  0.74296  0.34700  1.0000
  O   O20       1.0  0.68180  0.25704  0.84700  1.0000
  O   O21       1.0  0.18180  0.24296  0.15300  1.0000
  O   O22       1.0  0.81820  0.75704  0.65300  1.0000
  O   O23       1.0  0.81820  0.24296  0.34700  1.0000
  O   O24       1.0  0.18180  0.75704  0.84700  1.0000
  O   O25       1.0  0.51210  0.54923  0.43210  1.0000
  O   O26       1.0  0.48790  0.45077  0.93210  1.0000
  O   O27       1.0  0.48790  0.54923  0.06790  1.0000
  O   O28       1.0  0.51210  0.45077  0.56790  1.0000
  O   O29       1.0  0.01210  0.04923  0.43210  1.0000
  O   O30       1.0  0.98790  0.95077  0.93210  1.0000
  O   O31       1.0  0.98790  0.04923  0.06790  1.0000
  O   O32       1.0  0.01210  0.95077  0.56790  1.0000
  C   C1        1.0  0.00000  0.62390  0.25000  1.0000
  C   C2        1.0  0.00000  0.37610  0.75000  1.0000
  C   C3        1.0  0.50000  0.12390  0.25000  1.0000
  C   C4        1.0  0.50000  0.87610  0.75000  1.0000
  H   H1        1.0  0.00000  0.67380  0.25000  1.0000
  H   H2        1.0  0.00000  0.32620  0.75000  1.0000
  H   H3        1.0  0.50000  0.17380  0.25000  1.0000
  H   H4        1.0  0.50000  0.82620  0.75000  1.0000
  C   C5        1.0  0.76690  0.75760  0.02680  1.0000
  C   C6        1.0  0.23310  0.24240  0.52680  1.0000
  C   C7        1.0  0.23310  0.75760  0.47320  1.0000
  C   C8        1.0  0.76690  0.24240  0.97320  1.0000
  C   C9        1.0  0.26690  0.25760  0.02680  1.0000
  C   C10       1.0  0.73310  0.74240  0.52680  1.0000
  C   C11       1.0  0.73310  0.25760  0.47320  1.0000
  C   C12       1.0  0.26690  0.74240  0.97320  1.0000
  H   H5        1.0  0.79000  0.71970  0.95850  1.0000
  H   H6        1.0  0.21000  0.28030  0.45850  1.0000
  H   H7        1.0  0.21000  0.71970  0.54150  1.0000
  H   H8        1.0  0.79000  0.28030  0.04150  1.0000
  H   H9        1.0  0.29000  0.21970  0.95850  1.0000
  H   H10       1.0  0.71000  0.78030  0.45850  1.0000
  H   H11       1.0  0.71000  0.21970  0.54150  1.0000
  H   H12       1.0  0.29000  0.78030  0.04150  1.0000
  C   C13       1.0  0.42820  0.50000  0.50000  1.0000
  C   C14       1.0  0.57180  0.50000  0.00000  1.0000
  C   C15       1.0  0.92820  0.00000  0.50000  1.0000
  C   C16       1.0  0.07180  0.00000  0.00000  1.0000
  H   H13       1.0  0.29030  0.50000  0.50000  1.0000
  H   H14       1.0  0.70970  0.50000  0.00000  1.0000
  H   H15       1.0  0.79030  0.00000  0.50000  1.0000
  H   H16       1.0  0.20970  0.00000  0.00000  1.0000
