data_image0
_chemical_formula_structural       U4O32C6H2C2H2C4H2C2H2C8H2C2H2C4H2C2H2C8H2C2H2C2H2C6H2
_chemical_formula_sum              "U4 O32 C48 H24"
_cell_length_a       10.453
_cell_length_b       12.316
_cell_length_c       13.441
_cell_angle_alpha    78.49
_cell_angle_beta     82.169
_cell_angle_gamma    85.569

_space_group_name_H-M_alt    "P 1"
_space_group_IT_number       1

loop_
  _space_group_symop_operation_xyz
  'x, y, z'

loop_
  _atom_site_type_symbol
  _atom_site_label
  _atom_site_symmetry_multiplicity
  _atom_site_fract_x
  _atom_site_fract_y
  _atom_site_fract_z
  _atom_site_occupancy
  U   U1        1.0  0.79366  0.33842  0.08664  1.0000
  U   U2        1.0  0.20634  0.66157  0.91336  1.0000
  U   U3        1.0  0.60366  0.18702  0.59165  1.0000
  U   U4        1.0  0.39634  0.81298  0.40835  1.0000
  O   O1        1.0  0.93930  0.39370  0.19090  1.0000
  O   O2        1.0  0.06070  0.60630  0.80910  1.0000
  O   O3        1.0  0.90130  0.21720  0.22750  1.0000
  O   O4        1.0  0.09870  0.78280  0.77250  1.0000
  O   O5        1.0  0.73470  0.14220  0.10630  1.0000
  O   O6        1.0  0.26530  0.85780  0.89370  1.0000
  O   O7        1.0  0.65650  0.26110  0.98370  1.0000
  O   O8        1.0  0.34350  0.73890  0.01630  1.0000
  O   O9        1.0  0.69240  0.47730  0.96200  1.0000
  O   O10       1.0  0.30760  0.52270  0.03800  1.0000
  O   O11       1.0  0.81400  0.54320  0.05270  1.0000
  O   O12       1.0  0.18600  0.45680  0.94730  1.0000
  O   O13       1.0  0.39290  0.14090  0.55480  1.0000
  O   O14       1.0  0.60710  0.85910  0.44520  1.0000
  O   O15       1.0  0.45520  0.30490  0.48100  1.0000
  O   O16       1.0  0.54480  0.69510  0.51900  1.0000
  O   O17       1.0  0.69160  0.36980  0.50920  1.0000
  O   O18       1.0  0.30840  0.63020  0.49080  1.0000
  O   O19       1.0  0.80980  0.25760  0.61010  1.0000
  O   O20       1.0  0.19020  0.74240  0.38990  1.0000
  O   O21       1.0  0.72540  0.05880  0.71430  1.0000
  O   O22       1.0  0.27460  0.94120  0.28570  1.0000
  O   O23       1.0  0.54370  0.00250  0.68590  1.0000
  O   O24       1.0  0.45630  0.99750  0.31410  1.0000
  O   O25       1.0  0.92420  0.31660  0.99370  1.0000
  O   O26       1.0  0.07580  0.68340  0.00630  1.0000
  O   O27       1.0  0.66390  0.35700  0.18130  1.0000
  O   O28       1.0  0.33610  0.64300  0.81870  1.0000
  O   O29       1.0  0.52630  0.24670  0.69390  1.0000
  O   O30       1.0  0.47370  0.75330  0.30610  1.0000
  O   O31       1.0  0.68170  0.12960  0.48910  1.0000
  O   O32       1.0  0.31830  0.87040  0.51090  1.0000
  C   C1        1.0  0.96070  0.29810  0.24140  1.0000
  C   C2        1.0  0.03930  0.70190  0.75860  1.0000
  C   C3        1.0  0.05950  0.28100  0.31480  1.0000
  C   C4        1.0  0.94050  0.71900  0.68520  1.0000
  C   C5        1.0  0.13890  0.36720  0.31280  1.0000
  C   C6        1.0  0.86110  0.63280  0.68720  1.0000
  H   H1        1.0  0.12500  0.43580  0.27100  1.0000
  H   H2        1.0  0.87500  0.56420  0.72900  1.0000
  C   C7        1.0  0.23850  0.35080  0.37320  1.0000
  C   C8        1.0  0.76150  0.64920  0.62680  1.0000
  H   H3        1.0  0.29150  0.40850  0.37160  1.0000
  H   H4        1.0  0.70850  0.59150  0.62840  1.0000
  C   C9        1.0  0.25980  0.24970  0.43560  1.0000
  C   C10       1.0  0.74020  0.75030  0.56440  1.0000
  C   C11       1.0  0.17880  0.16370  0.43930  1.0000
  C   C12       1.0  0.82120  0.83630  0.56070  1.0000
  H   H5        1.0  0.19180  0.09560  0.48220  1.0000
  H   H6        1.0  0.80820  0.90440  0.51780  1.0000
  C   C13       1.0  0.07910  0.17970  0.37940  1.0000
  C   C14       1.0  0.92090  0.82030  0.62060  1.0000
  H   H7        1.0  0.02490  0.12240  0.38230  1.0000
  H   H8        1.0  0.97510  0.87760  0.61770  1.0000
  C   C15       1.0  0.37430  0.23090  0.49340  1.0000
  C   C16       1.0  0.62570  0.76910  0.50660  1.0000
  C   C17       1.0  0.74100  0.56000  0.98320  1.0000
  C   C18       1.0  0.25900  0.44000  0.01680  1.0000
  C   C19       1.0  0.71110  0.67310  0.92570  1.0000
  C   C20       1.0  0.28890  0.32690  0.07430  1.0000
  C   C21       1.0  0.78460  0.76130  0.92860  1.0000
  C   C22       1.0  0.21540  0.23870  0.07140  1.0000
  H   H9        1.0  0.84810  0.75210  0.97210  1.0000
  H   H10       1.0  0.15190  0.24790  0.02790  1.0000
  C   C23       1.0  0.76240  0.86350  0.86590  1.0000
  C   C24       1.0  0.23760  0.13650  0.13410  1.0000
  H   H11       1.0  0.81190  0.92270  0.86700  1.0000
  H   H12       1.0  0.18810  0.07730  0.13300  1.0000
  C   C25       1.0  0.66630  0.87730  0.80150  1.0000
  C   C26       1.0  0.33370  0.12270  0.19850  1.0000
  C   C27       1.0  0.59010  0.78930  0.80210  1.0000
  C   C28       1.0  0.40990  0.21070  0.19790  1.0000
  H   H13       1.0  0.52380  0.79920  0.76100  1.0000
  H   H14       1.0  0.47620  0.20080  0.23900  1.0000
  C   C29       1.0  0.61250  0.68740  0.86340  1.0000
  C   C30       1.0  0.38750  0.31260  0.13660  1.0000
  H   H15       1.0  0.56190  0.62850  0.86320  1.0000
  H   H16       1.0  0.43810  0.37150  0.13680  1.0000
  C   C31       1.0  0.64400  0.98440  0.73100  1.0000
  C   C32       1.0  0.35600  0.01560  0.26900  1.0000
  C   C33       1.0  0.66190  0.16400  0.03550  1.0000
  C   C34       1.0  0.33810  0.83600  0.96450  1.0000
  C   C35       1.0  0.58050  0.07820  0.01600  1.0000
  C   C36       1.0  0.41950  0.92180  0.98400  1.0000
  C   C37       1.0  0.58620  0.96930  0.07130  1.0000
  C   C38       1.0  0.41380  0.03070  0.92870  1.0000
  H   H17       1.0  0.64440  0.94910  0.11920  1.0000
  H   H18       1.0  0.35560  0.05090  0.88080  1.0000
  C   C39       1.0  0.49240  0.10780  0.94410  1.0000
  C   C40       1.0  0.50760  0.89220  0.05590  1.0000
  H   H19       1.0  0.48750  0.17990  0.90680  1.0000
  H   H20       1.0  0.51250  0.82010  0.09320  1.0000
  C   C41       1.0  0.00470  0.40920  0.57910  1.0000
  C   C42       1.0  0.99530  0.59080  0.42090  1.0000
  H   H21       1.0  0.00810  0.34840  0.63250  1.0000
  H   H22       1.0  0.99190  0.65160  0.36750  1.0000
  C   C43       1.0  0.90180  0.42630  0.52270  1.0000
  C   C44       1.0  0.09820  0.57370  0.47730  1.0000
  C   C45       1.0  0.79530  0.34760  0.54760  1.0000
  C   C46       1.0  0.20470  0.65240  0.45240  1.0000
  C   C47       1.0  0.89700  0.51740  0.44370  1.0000
  C   C48       1.0  0.10300  0.48260  0.55630  1.0000
  H   H23       1.0  0.82740  0.52930  0.40580  1.0000
  H   H24       1.0  0.17260  0.47070  0.59420  1.0000
