data_image0
_chemical_formula_structural       Cd3O16C2HC2HCHCHC4HC2HCHCHC4HC2HCHCHC4HC2HCHCHC2
_chemical_formula_sum              "Cd3 O16 C32 H16"
_cell_length_a       9.873
_cell_length_b       10.47
_cell_length_c       12.138
_cell_angle_alpha    100.95
_cell_angle_beta     111.89
_cell_angle_gamma    92.56

_space_group_name_H-M_alt    "P 1"
_space_group_IT_number       1

loop_
  _space_group_symop_operation_xyz
  'x, y, z'

loop_
  _atom_site_type_symbol
  _atom_site_label
  _atom_site_symmetry_multiplicity
  _atom_site_fract_x
  _atom_site_fract_y
  _atom_site_fract_z
  _atom_site_occupancy
  Cd  Cd1       1.0  0.92492  0.47918  0.55325  1.0000
  Cd  Cd2       1.0  0.09963  0.75583  0.80164  1.0000
  Cd  Cd3       1.0  0.27469  0.03231  0.05033  1.0000
  O   O1        1.0  0.92020  0.26500  0.57890  1.0000
  O   O2        1.0  0.82280  0.29540  0.39350  1.0000
  O   O3        1.0  0.88730  0.63540  0.45170  1.0000
  O   O4        1.0  0.99020  0.80410  0.61550  1.0000
  O   O5        1.0  0.14640  0.56090  0.70420  1.0000
  O   O6        1.0  0.20560  0.44060  0.56190  1.0000
  O   O7        1.0  0.74240  0.51640  0.61340  1.0000
  O   O8        1.0  0.90260  0.63880  0.79400  1.0000
  O   O9        1.0  0.26650  0.25580  0.02650  1.0000
  O   O10       1.0  0.37940  0.20830  0.20470  1.0000
  O   O11       1.0  0.21930  0.71670  0.98690  1.0000
  O   O12       1.0  0.30380  0.87550  0.15360  1.0000
  O   O13       1.0  0.05310  0.95220  0.90160  1.0000
  O   O14       1.0  0.99100  0.06370  0.04660  1.0000
  O   O15       1.0  0.29830  0.87730  0.80900  1.0000
  O   O16       1.0  0.45990  0.98490  0.98760  1.0000
  C   C1        1.0  0.82070  0.07580  0.41050  1.0000
  C   C2        1.0  0.88000  0.98710  0.48180  1.0000
  H   H1        1.0  0.93730  0.01710  0.56440  1.0000
  C   C3        1.0  0.85360  0.85350  0.42980  1.0000
  C   C4        1.0  0.76790  0.80870  0.30640  1.0000
  H   H2        1.0  0.75030  0.71930  0.27160  1.0000
  C   C5        1.0  0.70860  0.89740  0.23500  1.0000
  H   H3        1.0  0.65130  0.86740  0.15250  1.0000
  C   C6        1.0  0.73500  0.03100  0.28710  1.0000
  H   H4        1.0  0.69530  0.09030  0.23930  1.0000
  C   C7        1.0  0.86160  0.22150  0.46650  1.0000
  C   C8        1.0  0.91260  0.74840  0.50220  1.0000
  C   C9        1.0  0.40090  0.56050  0.74730  1.0000
  C   C10       1.0  0.50720  0.55510  0.69760  1.0000
  H   H5        1.0  0.47930  0.52920  0.61370  1.0000
  C   C11       1.0  0.65520  0.58840  0.77320  1.0000
  C   C12       1.0  0.69690  0.62710  0.89860  1.0000
  H   H6        1.0  0.79600  0.64940  0.94920  1.0000
  C   C13       1.0  0.59070  0.63250  0.94830  1.0000
  H   H7        1.0  0.61860  0.65830  0.03210  1.0000
  C   C14       1.0  0.44270  0.59920  0.87260  1.0000
  H   H8        1.0  0.37160  0.60270  0.90590  1.0000
  C   C15       1.0  0.24030  0.51950  0.66310  1.0000
  C   C16       1.0  0.77920  0.58970  0.72400  1.0000
  C   C17       1.0  0.38380  0.43660  0.19060  1.0000
  C   C18       1.0  0.32310  0.52740  0.12210  1.0000
  H   H9        1.0  0.26310  0.49910  0.04000  1.0000
  C   C19       1.0  0.35220  0.66040  0.17640  1.0000
  C   C20       1.0  0.44190  0.70270  0.29920  1.0000
  H   H10       1.0  0.46140  0.79170  0.33560  1.0000
  C   C21       1.0  0.50260  0.61200  0.36770  1.0000
  H   H11       1.0  0.56260  0.64030  0.44990  1.0000
  C   C22       1.0  0.47350  0.47890  0.31340  1.0000
  H   H12       1.0  0.51410  0.41820  0.35920  1.0000
  C   C23       1.0  0.34290  0.29360  0.13990  1.0000
  C   C24       1.0  0.28310  0.75310  0.09660  1.0000
  C   C25       1.0  0.79730  0.96120  0.86300  1.0000
  C   C26       1.0  0.68830  0.96020  0.90960  1.0000
  H   H13       1.0  0.71290  0.98840  0.99290  1.0000
  C   C27       1.0  0.54270  0.91690  0.83180  1.0000
  C   C28       1.0  0.50600  0.87470  0.70730  1.0000
  H   H14       1.0  0.40850  0.84580  0.65520  1.0000
  C   C29       1.0  0.61490  0.87570  0.66070  1.0000
  H   H15       1.0  0.59040  0.84750  0.57750  1.0000
  C   C30       1.0  0.76060  0.91900  0.73860  1.0000
  H   H16       1.0  0.83350  0.91970  0.70740  1.0000
  C   C31       1.0  0.95640  0.99480  0.94280  1.0000
  C   C32       1.0  0.42620  0.93450  0.88260  1.0000
