data_image0
_chemical_formula_structural       Co6O24Cl4C8H4C4H4C8H4C4H4C12H4C8H4C4
_chemical_formula_sum              "Co6 O24 Cl4 C48 H24"
_cell_length_a       12.842
_cell_length_b       10.05
_cell_length_c       17.404
_cell_angle_alpha    90
_cell_angle_beta     109.48
_cell_angle_gamma    90

_space_group_name_H-M_alt    "P 1"
_space_group_IT_number       1

loop_
  _space_group_symop_operation_xyz
  'x, y, z'

loop_
  _atom_site_type_symbol
  _atom_site_label
  _atom_site_symmetry_multiplicity
  _atom_site_fract_x
  _atom_site_fract_y
  _atom_site_fract_z
  _atom_site_occupancy
  Co  Co1       1.0  0.50000  0.00000  0.00000  1.0000
  Co  Co2       1.0  0.00000  0.50000  0.50000  1.0000
  Co  Co3       1.0  0.30655  0.93464  0.07437  1.0000
  Co  Co4       1.0  0.19345  0.43464  0.42563  1.0000
  Co  Co5       1.0  0.69345  0.06536  0.92563  1.0000
  Co  Co6       1.0  0.80655  0.56536  0.57437  1.0000
  O   O1        1.0  0.22390  0.06080  0.98840  1.0000
  O   O2        1.0  0.27610  0.56080  0.51160  1.0000
  O   O3        1.0  0.77610  0.93920  0.01160  1.0000
  O   O4        1.0  0.72390  0.43920  0.48840  1.0000
  O   O5        1.0  0.36450  0.10820  0.94400  1.0000
  O   O6        1.0  0.13550  0.60820  0.55600  1.0000
  O   O7        1.0  0.63550  0.89180  0.05600  1.0000
  O   O8        1.0  0.86450  0.39180  0.44400  1.0000
  O   O9        1.0  0.00960  0.42590  0.61040  1.0000
  O   O10       1.0  0.49040  0.92590  0.88960  1.0000
  O   O11       1.0  0.99040  0.57410  0.38960  1.0000
  O   O12       1.0  0.50960  0.07410  0.11040  1.0000
  O   O13       1.0  0.88740  0.46160  0.67270  1.0000
  O   O14       1.0  0.61260  0.96160  0.82730  1.0000
  O   O15       1.0  0.11260  0.53840  0.32730  1.0000
  O   O16       1.0  0.38740  0.03840  0.17270  1.0000
  O   O17       1.0  0.40060  0.83400  0.02260  1.0000
  O   O18       1.0  0.09940  0.33400  0.47740  1.0000
  O   O19       1.0  0.59940  0.16600  0.97740  1.0000
  O   O20       1.0  0.90060  0.66600  0.52260  1.0000
  O   O21       1.0  0.45560  0.74040  0.14510  1.0000
  O   O22       1.0  0.04440  0.24040  0.35490  1.0000
  O   O23       1.0  0.54440  0.25960  0.85490  1.0000
  O   O24       1.0  0.95560  0.75960  0.64510  1.0000
  Cl  Cl1       1.0  0.17095  0.80004  0.08715  1.0000
  Cl  Cl2       1.0  0.32905  0.30004  0.41285  1.0000
  Cl  Cl3       1.0  0.82905  0.19996  0.91285  1.0000
  Cl  Cl4       1.0  0.67095  0.69996  0.58715  1.0000
  C   C1        1.0  0.19080  0.19820  0.87330  1.0000
  C   C2        1.0  0.30920  0.69820  0.62670  1.0000
  C   C3        1.0  0.80920  0.80180  0.12670  1.0000
  C   C4        1.0  0.69080  0.30180  0.37330  1.0000
  C   C5        1.0  0.08140  0.21930  0.86640  1.0000
  C   C6        1.0  0.41860  0.71930  0.63360  1.0000
  C   C7        1.0  0.91860  0.78070  0.13360  1.0000
  C   C8        1.0  0.58140  0.28070  0.36640  1.0000
  H   H1        1.0  0.05470  0.18550  0.90590  1.0000
  H   H2        1.0  0.44530  0.68550  0.59410  1.0000
  H   H3        1.0  0.94530  0.81450  0.09410  1.0000
  H   H4        1.0  0.55470  0.31450  0.40590  1.0000
  C   C9        1.0  0.01110  0.29050  0.80110  1.0000
  C   C10       1.0  0.48890  0.79050  0.69890  1.0000
  C   C11       1.0  0.98890  0.70950  0.19890  1.0000
  C   C12       1.0  0.51110  0.20950  0.30110  1.0000
  H   H5        1.0  0.93760  0.30320  0.79670  1.0000
  H   H6        1.0  0.56240  0.80320  0.70330  1.0000
  H   H7        1.0  0.06240  0.69680  0.20330  1.0000
  H   H8        1.0  0.43760  0.19680  0.29670  1.0000
  C   C13       1.0  0.05130  0.34230  0.74270  1.0000
  C   C14       1.0  0.44870  0.84230  0.75730  1.0000
  C   C15       1.0  0.94870  0.65770  0.25730  1.0000
  C   C16       1.0  0.55130  0.15770  0.24270  1.0000
  C   C17       1.0  0.16070  0.32470  0.74960  1.0000
  C   C18       1.0  0.33930  0.82470  0.75040  1.0000
  C   C19       1.0  0.83930  0.67530  0.25040  1.0000
  C   C20       1.0  0.66070  0.17530  0.24960  1.0000
  H   H9        1.0  0.18740  0.36000  0.71030  1.0000
  H   H10       1.0  0.31260  0.86000  0.78970  1.0000
  H   H11       1.0  0.81260  0.64000  0.28970  1.0000
  H   H12       1.0  0.68740  0.14000  0.21030  1.0000
  C   C21       1.0  0.23150  0.25390  0.81560  1.0000
  C   C22       1.0  0.26850  0.75390  0.68440  1.0000
  C   C23       1.0  0.76850  0.74610  0.18440  1.0000
  C   C24       1.0  0.73150  0.24610  0.31560  1.0000
  H   H13       1.0  0.30560  0.24400  0.82100  1.0000
  H   H14       1.0  0.19440  0.74400  0.67900  1.0000
  H   H15       1.0  0.69440  0.75600  0.17900  1.0000
  H   H16       1.0  0.80560  0.25600  0.32100  1.0000
  C   C25       1.0  0.26590  0.11710  0.94050  1.0000
  C   C26       1.0  0.23410  0.61710  0.55950  1.0000
  C   C27       1.0  0.73410  0.88290  0.05950  1.0000
  C   C28       1.0  0.76590  0.38290  0.44050  1.0000
  C   C29       1.0  0.97780  0.41590  0.67050  1.0000
  C   C30       1.0  0.52220  0.91590  0.82950  1.0000
  C   C31       1.0  0.02220  0.58410  0.32950  1.0000
  C   C32       1.0  0.47780  0.08410  0.17050  1.0000
  C   C33       1.0  0.51160  0.50320  0.08190  1.0000
  C   C34       1.0  0.98840  0.00320  0.41810  1.0000
  C   C35       1.0  0.48840  0.49680  0.91810  1.0000
  C   C36       1.0  0.01160  0.99680  0.58190  1.0000
  H   H17       1.0  0.51970  0.50490  0.13700  1.0000
  H   H18       1.0  0.98030  0.00490  0.36300  1.0000
  H   H19       1.0  0.48030  0.49510  0.86300  1.0000
  H   H20       1.0  0.01970  0.99510  0.63700  1.0000
  C   C37       1.0  0.47510  0.61570  0.03470  1.0000
  C   C38       1.0  0.02490  0.11570  0.46530  1.0000
  C   C39       1.0  0.52490  0.38430  0.96530  1.0000
  C   C40       1.0  0.97510  0.88430  0.53470  1.0000
  C   C41       1.0  0.46380  0.61240  0.95260  1.0000
  C   C42       1.0  0.03620  0.11240  0.54740  1.0000
  C   C43       1.0  0.53620  0.38760  0.04740  1.0000
  C   C44       1.0  0.96380  0.88760  0.45260  1.0000
  H   H21       1.0  0.43970  0.68770  0.92050  1.0000
  H   H22       1.0  0.06030  0.18770  0.57950  1.0000
  H   H23       1.0  0.56030  0.31230  0.07950  1.0000
  H   H24       1.0  0.93970  0.81230  0.42050  1.0000
  C   C45       1.0  0.44450  0.73720  0.07120  1.0000
  C   C46       1.0  0.05550  0.23720  0.42880  1.0000
  C   C47       1.0  0.55550  0.26280  0.92880  1.0000
  C   C48       1.0  0.94450  0.76280  0.57120  1.0000
