data_image0
_chemical_formula_structural       Cd3O20C6H2C2H2C4H2C2H2C4H2C2H2C4H2C2H2C8H2C2H2C4H2C2H2C4H2C2H2C4H2C2H2C2
_chemical_formula_sum              "Cd3 O20 C56 H32"
_cell_length_a       11.687
_cell_length_b       14.419
_cell_length_c       14.71
_cell_angle_alpha    112.18
_cell_angle_beta     104.093
_cell_angle_gamma    100.391

_space_group_name_H-M_alt    "P 1"
_space_group_IT_number       1

loop_
  _space_group_symop_operation_xyz
  'x, y, z'

loop_
  _atom_site_type_symbol
  _atom_site_label
  _atom_site_symmetry_multiplicity
  _atom_site_fract_x
  _atom_site_fract_y
  _atom_site_fract_z
  _atom_site_occupancy
  Cd  Cd1       1.0  0.00000  0.50000  0.50000  1.0000
  Cd  Cd2       1.0  0.18524  0.49532  0.34753  1.0000
  Cd  Cd3       1.0  0.81476  0.50468  0.65247  1.0000
  O   O1        1.0  0.34290  0.61050  0.33130  1.0000
  O   O2        1.0  0.65710  0.38950  0.66870  1.0000
  O   O3        1.0  0.21830  0.47040  0.19190  1.0000
  O   O4        1.0  0.78170  0.52960  0.80810  1.0000
  O   O5        1.0  0.53320  0.68890  0.99080  1.0000
  O   O6        1.0  0.46680  0.31110  0.00920  1.0000
  O   O7        1.0  0.20770  0.57190  0.52540  1.0000
  O   O8        1.0  0.79230  0.42810  0.47460  1.0000
  O   O9        1.0  0.36950  0.52190  0.49990  1.0000
  O   O10       1.0  0.63050  0.47810  0.50010  1.0000
  O   O11       1.0  0.96040  0.60910  0.43530  1.0000
  O   O12       1.0  0.03960  0.39090  0.56470  1.0000
  O   O13       1.0  0.05040  0.58130  0.31380  1.0000
  O   O14       1.0  0.94960  0.41870  0.68620  1.0000
  O   O15       1.0  0.77730  0.90610  0.25110  1.0000
  O   O16       1.0  0.22270  0.09390  0.74890  1.0000
  O   O17       1.0  0.15610  0.32050  0.31520  1.0000
  O   O18       1.0  0.84390  0.67950  0.68480  1.0000
  O   O19       1.0  0.99970  0.37810  0.34290  1.0000
  O   O20       1.0  0.00030  0.62190  0.65710  1.0000
  C   C1        1.0  0.30380  0.55570  0.23490  1.0000
  C   C2        1.0  0.69620  0.44430  0.76510  1.0000
  C   C3        1.0  0.36160  0.59070  0.16820  1.0000
  C   C4        1.0  0.63840  0.40930  0.83180  1.0000
  C   C5        1.0  0.44400  0.68970  0.20990  1.0000
  C   C6        1.0  0.55600  0.31030  0.79010  1.0000
  H   H1        1.0  0.46370  0.73520  0.27990  1.0000
  H   H2        1.0  0.53630  0.26480  0.72010  1.0000
  C   C7        1.0  0.49750  0.72210  0.14890  1.0000
  C   C8        1.0  0.50250  0.27790  0.85110  1.0000
  H   H3        1.0  0.55250  0.78930  0.17720  1.0000
  H   H4        1.0  0.44750  0.21070  0.82280  1.0000
  C   C9        1.0  0.46860  0.65380  0.04550  1.0000
  C   C10       1.0  0.53140  0.34620  0.95450  1.0000
  C   C11       1.0  0.38690  0.55450  0.00180  1.0000
  C   C12       1.0  0.61310  0.44550  0.99820  1.0000
  H   H5        1.0  0.36820  0.50880  0.93200  1.0000
  H   H6        1.0  0.63180  0.49120  0.06800  1.0000
  C   C13       1.0  0.33350  0.52430  0.06390  1.0000
  C   C14       1.0  0.66650  0.47570  0.93610  1.0000
  H   H7        1.0  0.27710  0.45760  0.03510  1.0000
  H   H8        1.0  0.72290  0.54240  0.96490  1.0000
  C   C15       1.0  0.47530  0.65690  0.88600  1.0000
  C   C16       1.0  0.52470  0.34310  0.11400  1.0000
  C   C17       1.0  0.35310  0.65100  0.84520  1.0000
  C   C18       1.0  0.64690  0.34900  0.15480  1.0000
  H   H9        1.0  0.30650  0.66740  0.88880  1.0000
  H   H10       1.0  0.69350  0.33260  0.11120  1.0000
  C   C19       1.0  0.30000  0.62050  0.73920  1.0000
  C   C20       1.0  0.70000  0.37950  0.26080  1.0000
  H   H11       1.0  0.21760  0.61610  0.71170  1.0000
  H   H12       1.0  0.78240  0.38390  0.28830  1.0000
  C   C21       1.0  0.36930  0.59640  0.67390  1.0000
  C   C22       1.0  0.63070  0.40360  0.32610  1.0000
  C   C23       1.0  0.49470  0.60440  0.71730  1.0000
  C   C24       1.0  0.50530  0.39560  0.28270  1.0000
  H   H13       1.0  0.54200  0.58840  0.67430  1.0000
  H   H14       1.0  0.45800  0.41160  0.32570  1.0000
  C   C25       1.0  0.54710  0.63570  0.82290  1.0000
  C   C26       1.0  0.45290  0.36430  0.17710  1.0000
  H   H15       1.0  0.63020  0.64250  0.85150  1.0000
  H   H16       1.0  0.36980  0.35750  0.14850  1.0000
  C   C27       1.0  0.31350  0.56140  0.56040  1.0000
  C   C28       1.0  0.68650  0.43860  0.43960  1.0000
  C   C29       1.0  0.05000  0.30560  0.32310  1.0000
  C   C30       1.0  0.95000  0.69440  0.67690  1.0000
  C   C31       1.0  0.98000  0.19940  0.30560  1.0000
  C   C32       1.0  0.02000  0.80060  0.69440  1.0000
  C   C33       1.0  0.86120  0.17940  0.30630  1.0000
  C   C34       1.0  0.13880  0.82060  0.69370  1.0000
  H   H17       1.0  0.82440  0.23290  0.31910  1.0000
  H   H18       1.0  0.17560  0.76710  0.68090  1.0000
  C   C35       1.0  0.79560  0.08090  0.28830  1.0000
  C   C36       1.0  0.20440  0.91910  0.71170  1.0000
  H   H19       1.0  0.71460  0.06780  0.28790  1.0000
  H   H20       1.0  0.28540  0.93220  0.71210  1.0000
  C   C37       1.0  0.85010  0.00280  0.27090  1.0000
  C   C38       1.0  0.14990  0.99720  0.72910  1.0000
  C   C39       1.0  0.96950  0.02080  0.27160  1.0000
  C   C40       1.0  0.03050  0.97920  0.72840  1.0000
  H   H21       1.0  0.00730  0.96800  0.26160  1.0000
  H   H22       1.0  0.99270  0.03200  0.73840  1.0000
  C   C41       1.0  0.03170  0.11880  0.28760  1.0000
  C   C42       1.0  0.96830  0.88120  0.71240  1.0000
  H   H23       1.0  0.11200  0.13120  0.28610  1.0000
  H   H24       1.0  0.88800  0.86880  0.71390  1.0000
  C   C43       1.0  0.83420  0.83920  0.27890  1.0000
  C   C44       1.0  0.16580  0.16080  0.72110  1.0000
  C   C45       1.0  0.88420  0.86210  0.38190  1.0000
  C   C46       1.0  0.11580  0.13790  0.61810  1.0000
  H   H25       1.0  0.88550  0.92480  0.43350  1.0000
  H   H26       1.0  0.11450  0.07520  0.56650  1.0000
  C   C47       1.0  0.93310  0.79190  0.40920  1.0000
  C   C48       1.0  0.06690  0.20810  0.59080  1.0000
  H   H27       1.0  0.96550  0.80680  0.47930  1.0000
  H   H28       1.0  0.03450  0.19320  0.52070  1.0000
  C   C49       1.0  0.93380  0.70090  0.33400  1.0000
  C   C50       1.0  0.06620  0.29910  0.66600  1.0000
  C   C51       1.0  0.88410  0.67880  0.22970  1.0000
  C   C52       1.0  0.11590  0.32120  0.77030  1.0000
  H   H29       1.0  0.88490  0.61730  0.17780  1.0000
  H   H30       1.0  0.11510  0.38270  0.82220  1.0000
  C   C53       1.0  0.83280  0.74900  0.20260  1.0000
  C   C54       1.0  0.16720  0.25100  0.79740  1.0000
  H   H31       1.0  0.79810  0.73390  0.13270  1.0000
  H   H32       1.0  0.20190  0.26610  0.86730  1.0000
  C   C55       1.0  0.98620  0.62360  0.36330  1.0000
  C   C56       1.0  0.01380  0.37640  0.63670  1.0000
