data_image0
_chemical_formula_structural       In6Cl4O40C12H4C4H4C8H4C4H4C8H4C4H4C8H4C4H4C16H4C4H4C8H4C4H4C8H4C4H4C8H4C4H4C16H4C4H4C8H4C4H4
_chemical_formula_sum              "In6 Cl4 O40 C140 H80"
_cell_length_a       9.339
_cell_length_b       15.6217
_cell_length_c       33.6709
_cell_angle_alpha    90
_cell_angle_beta     90
_cell_angle_gamma    90

_space_group_name_H-M_alt    "P 1"
_space_group_IT_number       1

loop_
  _space_group_symop_operation_xyz
  'x, y, z'

loop_
  _atom_site_type_symbol
  _atom_site_label
  _atom_site_symmetry_multiplicity
  _atom_site_fract_x
  _atom_site_fract_y
  _atom_site_fract_z
  _atom_site_occupancy
  In  In1       1.0  0.50000  0.44407  0.25000  1.0000
  In  In2       1.0  0.50000  0.55593  0.75000  1.0000
  In  In3       1.0  0.82616  0.05412  0.87938  1.0000
  In  In4       1.0  0.17384  0.94588  0.37938  1.0000
  In  In5       1.0  0.82616  0.94588  0.12062  1.0000
  In  In6       1.0  0.17384  0.05412  0.62062  1.0000
  Cl  Cl1       1.0  0.73570  0.91230  0.87412  1.0000
  Cl  Cl2       1.0  0.26430  0.08770  0.37412  1.0000
  Cl  Cl3       1.0  0.73570  0.08770  0.12588  1.0000
  Cl  Cl4       1.0  0.26430  0.91230  0.62588  1.0000
  O   O1        1.0  0.63460  0.55120  0.23310  1.0000
  O   O2        1.0  0.36540  0.44880  0.73310  1.0000
  O   O3        1.0  0.63460  0.44880  0.76690  1.0000
  O   O4        1.0  0.36540  0.55120  0.26690  1.0000
  O   O5        1.0  0.74200  0.43250  0.22290  1.0000
  O   O6        1.0  0.25800  0.56750  0.72290  1.0000
  O   O7        1.0  0.74200  0.56750  0.77710  1.0000
  O   O8        1.0  0.25800  0.43250  0.27710  1.0000
  O   O9        1.0  0.58860  0.89690  0.10110  1.0000
  O   O10       1.0  0.41140  0.10310  0.60110  1.0000
  O   O11       1.0  0.58860  0.10310  0.89890  1.0000
  O   O12       1.0  0.41140  0.89690  0.39890  1.0000
  O   O13       1.0  0.69340  0.86240  0.15690  1.0000
  O   O14       1.0  0.30660  0.13760  0.65690  1.0000
  O   O15       1.0  0.69340  0.13760  0.84310  1.0000
  O   O16       1.0  0.30660  0.86240  0.34310  1.0000
  O   O17       1.0  0.41560  0.45170  0.18610  1.0000
  O   O18       1.0  0.58440  0.54830  0.68610  1.0000
  O   O19       1.0  0.41560  0.54830  0.81390  1.0000
  O   O20       1.0  0.58440  0.45170  0.31390  1.0000
  O   O21       1.0  0.43330  0.32840  0.21280  1.0000
  O   O22       1.0  0.56670  0.67160  0.71280  1.0000
  O   O23       1.0  0.43330  0.67160  0.78720  1.0000
  O   O24       1.0  0.56670  0.32840  0.28720  1.0000
  O   O25       1.0  0.92760  0.16550  0.91111  1.0000
  O   O26       1.0  0.07240  0.83450  0.41111  1.0000
  O   O27       1.0  0.92760  0.83450  0.08889  1.0000
  O   O28       1.0  0.07240  0.16550  0.58889  1.0000
  O   O29       1.0  0.86790  0.05320  0.94457  1.0000
  O   O30       1.0  0.13210  0.94680  0.44457  1.0000
  O   O31       1.0  0.86790  0.94680  0.05543  1.0000
  O   O32       1.0  0.13210  0.05320  0.55543  1.0000
  O   O33       1.0  0.08660  0.00350  0.87820  1.0000
  O   O34       1.0  0.91340  0.99650  0.37820  1.0000
  O   O35       1.0  0.08660  0.99650  0.12180  1.0000
  O   O36       1.0  0.91340  0.00350  0.62180  1.0000
  O   O37       1.0  0.96500  0.06080  0.82860  1.0000
  O   O38       1.0  0.03500  0.93920  0.32860  1.0000
  O   O39       1.0  0.96500  0.93920  0.17140  1.0000
  O   O40       1.0  0.03500  0.06080  0.67140  1.0000
  C   C1        1.0  0.74790  0.51040  0.22150  1.0000
  C   C2        1.0  0.25210  0.48960  0.72150  1.0000
  C   C3        1.0  0.74790  0.48960  0.77850  1.0000
  C   C4        1.0  0.25210  0.51040  0.27850  1.0000
  C   C5        1.0  0.86740  0.56050  0.20630  1.0000
  C   C6        1.0  0.13260  0.43950  0.70630  1.0000
  C   C7        1.0  0.86740  0.43950  0.79370  1.0000
  C   C8        1.0  0.13260  0.56050  0.29370  1.0000
  C   C9        1.0  0.85970  0.64620  0.20320  1.0000
  C   C10       1.0  0.14030  0.35380  0.70320  1.0000
  C   C11       1.0  0.85970  0.35380  0.79680  1.0000
  C   C12       1.0  0.14030  0.64620  0.29680  1.0000
  H   H1        1.0  0.77452  0.67340  0.20994  1.0000
  H   H2        1.0  0.22548  0.32660  0.70994  1.0000
  H   H3        1.0  0.77452  0.32660  0.79006  1.0000
  H   H4        1.0  0.22548  0.67340  0.29006  1.0000
  C   C13       1.0  0.97440  0.69580  0.19010  1.0000
  C   C14       1.0  0.02560  0.30420  0.69010  1.0000
  C   C15       1.0  0.97440  0.30420  0.80990  1.0000
  C   C16       1.0  0.02560  0.69580  0.30990  1.0000
  H   H5        1.0  0.96305  0.75453  0.18667  1.0000
  H   H6        1.0  0.03695  0.24547  0.68667  1.0000
  H   H7        1.0  0.96305  0.24547  0.81333  1.0000
  H   H8        1.0  0.03695  0.75453  0.31333  1.0000
  C   C17       1.0  0.10150  0.65890  0.18250  1.0000
  C   C18       1.0  0.89850  0.34110  0.68250  1.0000
  C   C19       1.0  0.10150  0.34110  0.81750  1.0000
  C   C20       1.0  0.89850  0.65890  0.31750  1.0000
  C   C21       1.0  0.11430  0.57060  0.18670  1.0000
  C   C22       1.0  0.88570  0.42940  0.68670  1.0000
  C   C23       1.0  0.11430  0.42940  0.81330  1.0000
  C   C24       1.0  0.88570  0.57060  0.31330  1.0000
  H   H9        1.0  0.20179  0.54446  0.18146  1.0000
  H   H10       1.0  0.79821  0.45554  0.68146  1.0000
  H   H11       1.0  0.20179  0.45554  0.81854  1.0000
  H   H12       1.0  0.79821  0.54446  0.31854  1.0000
  C   C25       1.0  0.99670  0.51990  0.19860  1.0000
  C   C26       1.0  0.00330  0.48010  0.69860  1.0000
  C   C27       1.0  0.99670  0.48010  0.80140  1.0000
  C   C28       1.0  0.00330  0.51990  0.30140  1.0000
  H   H13       1.0  0.00568  0.46093  0.20131  1.0000
  H   H14       1.0  0.99432  0.53907  0.70131  1.0000
  H   H15       1.0  0.00568  0.53907  0.79869  1.0000
  H   H16       1.0  0.99432  0.46093  0.29869  1.0000
  C   C29       1.0  0.22680  0.70820  0.17030  1.0000
  C   C30       1.0  0.77320  0.29180  0.67030  1.0000
  C   C31       1.0  0.22680  0.29180  0.82970  1.0000
  C   C32       1.0  0.77320  0.70820  0.32970  1.0000
  C   C33       1.0  0.21610  0.76380  0.13760  1.0000
  C   C34       1.0  0.78390  0.23620  0.63760  1.0000
  C   C35       1.0  0.21610  0.23620  0.86240  1.0000
  C   C36       1.0  0.78390  0.76380  0.36240  1.0000
  H   H17       1.0  0.13037  0.76791  0.12371  1.0000
  H   H18       1.0  0.86963  0.23209  0.62371  1.0000
  H   H19       1.0  0.13037  0.23209  0.87629  1.0000
  H   H20       1.0  0.86963  0.76791  0.37629  1.0000
  C   C37       1.0  0.33190  0.81230  0.12620  1.0000
  C   C38       1.0  0.66810  0.18770  0.62620  1.0000
  C   C39       1.0  0.33190  0.18770  0.87380  1.0000
  C   C40       1.0  0.66810  0.81230  0.37380  1.0000
  H   H21       1.0  0.32306  0.84927  0.10467  1.0000
  H   H22       1.0  0.67694  0.15073  0.60467  1.0000
  H   H23       1.0  0.32306  0.15073  0.89533  1.0000
  H   H24       1.0  0.67694  0.84927  0.39533  1.0000
  C   C41       1.0  0.46060  0.80720  0.14590  1.0000
  C   C42       1.0  0.53940  0.19280  0.64590  1.0000
  C   C43       1.0  0.46060  0.19280  0.85410  1.0000
  C   C44       1.0  0.53940  0.80720  0.35410  1.0000
  C   C45       1.0  0.46990  0.75220  0.17830  1.0000
  C   C46       1.0  0.53010  0.24780  0.67830  1.0000
  C   C47       1.0  0.46990  0.24780  0.82170  1.0000
  C   C48       1.0  0.53010  0.75220  0.32170  1.0000
  H   H25       1.0  0.55435  0.74930  0.19293  1.0000
  H   H26       1.0  0.44565  0.25070  0.69293  1.0000
  H   H27       1.0  0.55435  0.25070  0.80707  1.0000
  H   H28       1.0  0.44565  0.74930  0.30707  1.0000
  C   C49       1.0  0.35560  0.70220  0.18890  1.0000
  C   C50       1.0  0.64440  0.29780  0.68890  1.0000
  C   C51       1.0  0.35560  0.29780  0.81110  1.0000
  C   C52       1.0  0.64440  0.70220  0.31110  1.0000
  H   H29       1.0  0.36638  0.66298  0.20947  1.0000
  H   H30       1.0  0.63362  0.33702  0.70947  1.0000
  H   H31       1.0  0.36638  0.33702  0.79053  1.0000
  H   H32       1.0  0.63362  0.66298  0.29053  1.0000
  C   C53       1.0  0.58840  0.85840  0.13350  1.0000
  C   C54       1.0  0.41160  0.14160  0.63350  1.0000
  C   C55       1.0  0.58840  0.14160  0.86650  1.0000
  C   C56       1.0  0.41160  0.85840  0.36650  1.0000
  C   C57       1.0  0.39730  0.37540  0.18510  1.0000
  C   C58       1.0  0.60270  0.62460  0.68510  1.0000
  C   C59       1.0  0.39730  0.62460  0.81490  1.0000
  C   C60       1.0  0.60270  0.37540  0.31490  1.0000
  C   C61       1.0  0.33460  0.33620  0.14760  1.0000
  C   C62       1.0  0.66540  0.66380  0.64760  1.0000
  C   C63       1.0  0.33460  0.66380  0.85240  1.0000
  C   C64       1.0  0.66540  0.33620  0.35240  1.0000
  C   C65       1.0  0.32000  0.25310  0.14430  1.0000
  C   C66       1.0  0.68000  0.74690  0.64430  1.0000
  C   C67       1.0  0.32000  0.74690  0.85570  1.0000
  C   C68       1.0  0.68000  0.25310  0.35570  1.0000
  H   H33       1.0  0.35993  0.21985  0.16433  1.0000
  H   H34       1.0  0.64007  0.78015  0.66433  1.0000
  H   H35       1.0  0.35993  0.78015  0.83567  1.0000
  H   H36       1.0  0.64007  0.21985  0.33567  1.0000
  C   C69       1.0  0.24510  0.20660  0.11200  1.0000
  C   C70       1.0  0.75490  0.79340  0.61200  1.0000
  C   C71       1.0  0.24510  0.79340  0.88800  1.0000
  C   C72       1.0  0.75490  0.20660  0.38800  1.0000
  H   H37       1.0  0.22819  0.14792  0.11155  1.0000
  H   H38       1.0  0.77181  0.85208  0.61155  1.0000
  H   H39       1.0  0.22819  0.85208  0.88845  1.0000
  H   H40       1.0  0.77181  0.14792  0.38845  1.0000
  C   C73       1.0  0.20280  0.26560  0.08130  1.0000
  C   C74       1.0  0.79720  0.73440  0.58130  1.0000
  C   C75       1.0  0.20280  0.73440  0.91870  1.0000
  C   C76       1.0  0.79720  0.26560  0.41870  1.0000
  C   C77       1.0  0.22080  0.35110  0.08430  1.0000
  C   C78       1.0  0.77920  0.64890  0.58430  1.0000
  C   C79       1.0  0.22080  0.64890  0.91570  1.0000
  C   C80       1.0  0.77920  0.35110  0.41570  1.0000
  H   H41       1.0  0.18956  0.38649  0.06382  1.0000
  H   H42       1.0  0.81044  0.61351  0.56382  1.0000
  H   H43       1.0  0.18956  0.61351  0.93618  1.0000
  H   H44       1.0  0.81044  0.38649  0.43618  1.0000
  C   C81       1.0  0.28610  0.38730  0.11790  1.0000
  C   C82       1.0  0.71390  0.61270  0.61790  1.0000
  C   C83       1.0  0.28610  0.61270  0.88210  1.0000
  C   C84       1.0  0.71390  0.38730  0.38210  1.0000
  H   H45       1.0  0.29611  0.44636  0.11976  1.0000
  H   H46       1.0  0.70389  0.55364  0.61976  1.0000
  H   H47       1.0  0.29611  0.55364  0.88024  1.0000
  H   H48       1.0  0.70389  0.44636  0.38024  1.0000
  C   C85       1.0  0.13030  0.22790  0.04570  1.0000
  C   C86       1.0  0.86970  0.77210  0.54570  1.0000
  C   C87       1.0  0.13030  0.77210  0.95430  1.0000
  C   C88       1.0  0.86970  0.22790  0.45430  1.0000
  C   C89       1.0  0.04890  0.15610  0.04820  1.0000
  C   C90       1.0  0.95110  0.84390  0.54820  1.0000
  C   C91       1.0  0.04890  0.84390  0.95180  1.0000
  C   C92       1.0  0.95110  0.15610  0.45180  1.0000
  H   H49       1.0  0.03724  0.12909  0.07264  1.0000
  H   H50       1.0  0.96276  0.87091  0.57264  1.0000
  H   H51       1.0  0.03724  0.87091  0.92736  1.0000
  H   H52       1.0  0.96276  0.12909  0.42736  1.0000
  C   C93       1.0  0.98370  0.12290  0.01500  1.0000
  C   C94       1.0  0.01630  0.87710  0.51500  1.0000
  C   C95       1.0  0.98370  0.87710  0.98500  1.0000
  C   C96       1.0  0.01630  0.12290  0.48500  1.0000
  H   H53       1.0  0.93050  0.07273  0.01723  1.0000
  H   H54       1.0  0.06950  0.92727  0.51723  1.0000
  H   H55       1.0  0.93050  0.92727  0.98277  1.0000
  H   H56       1.0  0.06950  0.07273  0.48277  1.0000
  C   C97       1.0  0.99540  0.16240  0.97860  1.0000
  C   C98       1.0  0.00460  0.83760  0.47860  1.0000
  C   C99       1.0  0.99540  0.83760  0.02140  1.0000
  C   C100      1.0  0.00460  0.16240  0.52140  1.0000
  C   C101      1.0  0.07950  0.23420  0.97610  1.0000
  C   C102      1.0  0.92050  0.76580  0.47610  1.0000
  C   C103      1.0  0.07950  0.76580  0.02390  1.0000
  C   C104      1.0  0.92050  0.23420  0.52390  1.0000
  H   H57       1.0  0.09397  0.26037  0.95165  1.0000
  H   H58       1.0  0.90603  0.73963  0.45165  1.0000
  H   H59       1.0  0.09397  0.73963  0.04835  1.0000
  H   H60       1.0  0.90603  0.26037  0.54835  1.0000
  C   C105      1.0  0.14190  0.26730  0.00920  1.0000
  C   C106      1.0  0.85810  0.73270  0.50920  1.0000
  C   C107      1.0  0.14190  0.73270  0.99080  1.0000
  C   C108      1.0  0.85810  0.26730  0.49080  1.0000
  H   H61       1.0  0.19382  0.31793  0.00717  1.0000
  H   H62       1.0  0.80618  0.68207  0.50717  1.0000
  H   H63       1.0  0.19382  0.68207  0.99283  1.0000
  H   H64       1.0  0.80618  0.31793  0.49283  1.0000
  C   C109      1.0  0.92620  0.12480  0.94300  1.0000
  C   C110      1.0  0.07380  0.87520  0.44300  1.0000
  C   C111      1.0  0.92620  0.87520  0.05700  1.0000
  C   C112      1.0  0.07380  0.12480  0.55700  1.0000
  C   C113      1.0  0.07750  0.02890  0.84260  1.0000
  C   C114      1.0  0.92250  0.97110  0.34260  1.0000
  C   C115      1.0  0.07750  0.97110  0.15740  1.0000
  C   C116      1.0  0.92250  0.02890  0.65740  1.0000
  C   C117      1.0  0.20560  0.02500  0.81570  1.0000
  C   C118      1.0  0.79440  0.97500  0.31570  1.0000
  C   C119      1.0  0.20560  0.97500  0.18430  1.0000
  C   C120      1.0  0.79440  0.02500  0.68430  1.0000
  C   C121      1.0  0.19410  0.05490  0.77730  1.0000
  C   C122      1.0  0.80590  0.94510  0.27730  1.0000
  C   C123      1.0  0.19410  0.94510  0.22270  1.0000
  C   C124      1.0  0.80590  0.05490  0.72270  1.0000
  H   H65       1.0  0.10820  0.07842  0.76854  1.0000
  H   H66       1.0  0.89180  0.92158  0.26854  1.0000
  H   H67       1.0  0.10820  0.92158  0.23146  1.0000
  H   H68       1.0  0.89180  0.07842  0.73146  1.0000
  C   C125      1.0  0.30810  0.05020  0.75210  1.0000
  C   C126      1.0  0.69190  0.94980  0.25210  1.0000
  C   C127      1.0  0.30810  0.94980  0.24790  1.0000
  C   C128      1.0  0.69190  0.05020  0.74790  1.0000
  H   H69       1.0  0.29752  0.07062  0.72635  1.0000
  H   H70       1.0  0.70248  0.92938  0.22635  1.0000
  H   H71       1.0  0.29752  0.92938  0.27365  1.0000
  H   H72       1.0  0.70248  0.07062  0.77365  1.0000
  C   C129      1.0  0.43790  0.01670  0.76320  1.0000
  C   C130      1.0  0.56210  0.98330  0.26320  1.0000
  C   C131      1.0  0.43790  0.98330  0.23680  1.0000
  C   C132      1.0  0.56210  0.01670  0.73680  1.0000
  C   C133      1.0  0.44710  0.98680  0.80230  1.0000
  C   C134      1.0  0.55290  0.01320  0.30230  1.0000
  C   C135      1.0  0.44710  0.01320  0.19770  1.0000
  C   C136      1.0  0.55290  0.98680  0.69770  1.0000
  H   H73       1.0  0.53382  0.96506  0.81139  1.0000
  H   H74       1.0  0.46618  0.03494  0.31139  1.0000
  H   H75       1.0  0.53382  0.03494  0.18861  1.0000
  H   H76       1.0  0.46618  0.96506  0.68861  1.0000
  C   C137      1.0  0.33400  0.98850  0.82720  1.0000
  C   C138      1.0  0.66600  0.01150  0.32720  1.0000
  C   C139      1.0  0.33400  0.01150  0.17280  1.0000
  C   C140      1.0  0.66600  0.98850  0.67280  1.0000
  H   H77       1.0  0.34251  0.96492  0.85249  1.0000
  H   H78       1.0  0.65749  0.03508  0.35249  1.0000
  H   H79       1.0  0.34251  0.03508  0.14751  1.0000
  H   H80       1.0  0.65749  0.96492  0.64751  1.0000
