data_image0
_chemical_formula_structural       Fe16O16C16H8C16O24H16O16C8O16C8N8H8N8C32H24C8H24O8N8C8H8C8H24C8H24O8C32H16
_chemical_formula_sum              "Fe16 O88 C144 H152 N24"
_cell_length_a       29.03
_cell_length_b       18.12
_cell_length_c       14.06
_cell_angle_alpha    90
_cell_angle_beta     113.699
_cell_angle_gamma    90

_space_group_name_H-M_alt    "P 1"
_space_group_IT_number       1

loop_
  _space_group_symop_operation_xyz
  'x, y, z'

loop_
  _atom_site_type_symbol
  _atom_site_label
  _atom_site_symmetry_multiplicity
  _atom_site_fract_x
  _atom_site_fract_y
  _atom_site_fract_z
  _atom_site_occupancy
  Fe  Fe1       1.0  0.18033  0.46021  0.35492  1.0000
  Fe  Fe2       1.0  0.81967  0.46021  0.14508  1.0000
  Fe  Fe3       1.0  0.68033  0.96021  0.35492  1.0000
  Fe  Fe4       1.0  0.31967  0.96021  0.14508  1.0000
  Fe  Fe5       1.0  0.81967  0.53979  0.64508  1.0000
  Fe  Fe6       1.0  0.18033  0.53979  0.85492  1.0000
  Fe  Fe7       1.0  0.31967  0.03979  0.64508  1.0000
  Fe  Fe8       1.0  0.68033  0.03979  0.85492  1.0000
  Fe  Fe9       1.0  0.26347  0.50326  0.25507  1.0000
  Fe  Fe10      1.0  0.73653  0.50326  0.24493  1.0000
  Fe  Fe11      1.0  0.76347  0.00326  0.25507  1.0000
  Fe  Fe12      1.0  0.23653  0.00326  0.24493  1.0000
  Fe  Fe13      1.0  0.73653  0.49674  0.74493  1.0000
  Fe  Fe14      1.0  0.26347  0.49674  0.75507  1.0000
  Fe  Fe15      1.0  0.23653  0.99674  0.74493  1.0000
  Fe  Fe16      1.0  0.76347  0.99674  0.75507  1.0000
  O   O1        1.0  0.26595  0.59430  0.34680  1.0000
  O   O2        1.0  0.73405  0.59430  0.15320  1.0000
  O   O3        1.0  0.76595  0.09430  0.34680  1.0000
  O   O4        1.0  0.23405  0.09430  0.15320  1.0000
  O   O5        1.0  0.73405  0.40570  0.65320  1.0000
  O   O6        1.0  0.26595  0.40570  0.84680  1.0000
  O   O7        1.0  0.23405  0.90570  0.65320  1.0000
  O   O8        1.0  0.76595  0.90570  0.84680  1.0000
  O   O9        1.0  0.20929  0.56410  0.41240  1.0000
  O   O10       1.0  0.79071  0.56410  0.08760  1.0000
  O   O11       1.0  0.70929  0.06410  0.41240  1.0000
  O   O12       1.0  0.29071  0.06410  0.08760  1.0000
  O   O13       1.0  0.79071  0.43590  0.58760  1.0000
  O   O14       1.0  0.20929  0.43590  0.91240  1.0000
  O   O15       1.0  0.29071  0.93590  0.58760  1.0000
  O   O16       1.0  0.70929  0.93590  0.91240  1.0000
  C   C1        1.0  0.24610  0.68000  0.45320  1.0000
  C   C2        1.0  0.75390  0.68000  0.04680  1.0000
  C   C3        1.0  0.74610  0.18000  0.45320  1.0000
  C   C4        1.0  0.25390  0.18000  0.04680  1.0000
  C   C5        1.0  0.75390  0.32000  0.54680  1.0000
  C   C6        1.0  0.24610  0.32000  0.95320  1.0000
  C   C7        1.0  0.25390  0.82000  0.54680  1.0000
  C   C8        1.0  0.74610  0.82000  0.95320  1.0000
  C   C9        1.0  0.26030  0.74130  0.41220  1.0000
  C   C10       1.0  0.73970  0.74130  0.08780  1.0000
  C   C11       1.0  0.76030  0.24130  0.41220  1.0000
  C   C12       1.0  0.23970  0.24130  0.08780  1.0000
  C   C13       1.0  0.73970  0.25870  0.58780  1.0000
  C   C14       1.0  0.26030  0.25870  0.91220  1.0000
  C   C15       1.0  0.23970  0.75870  0.58780  1.0000
  C   C16       1.0  0.76030  0.75870  0.91220  1.0000
  H   H1        1.0  0.26782  0.73550  0.35421  1.0000
  H   H2        1.0  0.73218  0.73550  0.14579  1.0000
  H   H3        1.0  0.76782  0.23550  0.35421  1.0000
  H   H4        1.0  0.23218  0.23550  0.14579  1.0000
  H   H5        1.0  0.73218  0.26450  0.64579  1.0000
  H   H6        1.0  0.26782  0.26450  0.85421  1.0000
  H   H7        1.0  0.23218  0.76450  0.64579  1.0000
  H   H8        1.0  0.76782  0.76450  0.85421  1.0000
  C   C17       1.0  0.24140  0.60710  0.40220  1.0000
  C   C18       1.0  0.75860  0.60710  0.09780  1.0000
  C   C19       1.0  0.74140  0.10710  0.40220  1.0000
  C   C20       1.0  0.25860  0.10710  0.09780  1.0000
  C   C21       1.0  0.75860  0.39290  0.59780  1.0000
  C   C22       1.0  0.24140  0.39290  0.90220  1.0000
  C   C23       1.0  0.25860  0.89290  0.59780  1.0000
  C   C24       1.0  0.74140  0.89290  0.90220  1.0000
  C   C25       1.0  0.23630  0.68750  0.54340  1.0000
  C   C26       1.0  0.76370  0.68750  0.95660  1.0000
  C   C27       1.0  0.73630  0.18750  0.54340  1.0000
  C   C28       1.0  0.26370  0.18750  0.95660  1.0000
  C   C29       1.0  0.76370  0.31250  0.45660  1.0000
  C   C30       1.0  0.23630  0.31250  0.04340  1.0000
  C   C31       1.0  0.26370  0.81250  0.45660  1.0000
  C   C32       1.0  0.73630  0.81250  0.04340  1.0000
  O   O17       1.0  0.17992  0.49310  0.20270  1.0000
  O   O18       1.0  0.82008  0.49310  0.29730  1.0000
  O   O19       1.0  0.67992  0.99310  0.20270  1.0000
  O   O20       1.0  0.32008  0.99310  0.29730  1.0000
  O   O21       1.0  0.82008  0.50690  0.79730  1.0000
  O   O22       1.0  0.17992  0.50690  0.70270  1.0000
  O   O23       1.0  0.32008  0.00690  0.79730  1.0000
  O   O24       1.0  0.67992  0.00690  0.70270  1.0000
  O   O25       1.0  0.19708  0.56700  0.01030  1.0000
  O   O26       1.0  0.80292  0.56700  0.48970  1.0000
  O   O27       1.0  0.69708  0.06700  0.01030  1.0000
  O   O28       1.0  0.30292  0.06700  0.48970  1.0000
  O   O29       1.0  0.80292  0.43300  0.98970  1.0000
  O   O30       1.0  0.19708  0.43300  0.51030  1.0000
  O   O31       1.0  0.30292  0.93300  0.98970  1.0000
  O   O32       1.0  0.69708  0.93300  0.51030  1.0000
  O   O33       1.0  0.34359  0.48950  0.32420  1.0000
  O   O34       1.0  0.65641  0.48950  0.17580  1.0000
  O   O35       1.0  0.84359  0.98950  0.32420  1.0000
  O   O36       1.0  0.15641  0.98950  0.17580  1.0000
  O   O37       1.0  0.65641  0.51050  0.67580  1.0000
  O   O38       1.0  0.34359  0.51050  0.82420  1.0000
  O   O39       1.0  0.15641  0.01050  0.67580  1.0000
  O   O40       1.0  0.84359  0.01050  0.82420  1.0000
  H   H9        1.0  0.35541  0.48956  0.27734  1.0000
  H   H10       1.0  0.64459  0.48956  0.22266  1.0000
  H   H11       1.0  0.85541  0.98956  0.27734  1.0000
  H   H12       1.0  0.14459  0.98956  0.22266  1.0000
  H   H13       1.0  0.64459  0.51044  0.72266  1.0000
  H   H14       1.0  0.35541  0.51044  0.77734  1.0000
  H   H15       1.0  0.14459  0.01044  0.72266  1.0000
  H   H16       1.0  0.85541  0.01044  0.77734  1.0000
  H   H17       1.0  0.35048  0.44818  0.35643  1.0000
  H   H18       1.0  0.64952  0.44818  0.14357  1.0000
  H   H19       1.0  0.85048  0.94818  0.35643  1.0000
  H   H20       1.0  0.14952  0.94818  0.14357  1.0000
  H   H21       1.0  0.64952  0.55182  0.64357  1.0000
  H   H22       1.0  0.35048  0.55182  0.85643  1.0000
  H   H23       1.0  0.14952  0.05182  0.64357  1.0000
  H   H24       1.0  0.85048  0.05182  0.85643  1.0000
  O   O41       1.0  0.25670  0.57230  0.87230  1.0000
  O   O42       1.0  0.74330  0.57230  0.62770  1.0000
  O   O43       1.0  0.75670  0.07230  0.87230  1.0000
  O   O44       1.0  0.24330  0.07230  0.62770  1.0000
  O   O45       1.0  0.74330  0.42770  0.12770  1.0000
  O   O46       1.0  0.25670  0.42770  0.37230  1.0000
  O   O47       1.0  0.24330  0.92770  0.12770  1.0000
  O   O48       1.0  0.75670  0.92770  0.37230  1.0000
  O   O49       1.0  0.32590  0.63820  0.90200  1.0000
  O   O50       1.0  0.67410  0.63820  0.59800  1.0000
  O   O51       1.0  0.82590  0.13820  0.90200  1.0000
  O   O52       1.0  0.17410  0.13820  0.59800  1.0000
  O   O53       1.0  0.67410  0.36180  0.09800  1.0000
  O   O54       1.0  0.32590  0.36180  0.40200  1.0000
  O   O55       1.0  0.17410  0.86180  0.09800  1.0000
  O   O56       1.0  0.82590  0.86180  0.40200  1.0000
  C   C33       1.0  0.28480  0.63010  0.91010  1.0000
  C   C34       1.0  0.71520  0.63010  0.58990  1.0000
  C   C35       1.0  0.78480  0.13010  0.91010  1.0000
  C   C36       1.0  0.21520  0.13010  0.58990  1.0000
  C   C37       1.0  0.71520  0.36990  0.08990  1.0000
  C   C38       1.0  0.28480  0.36990  0.41010  1.0000
  C   C39       1.0  0.21520  0.86990  0.08990  1.0000
  C   C40       1.0  0.78480  0.86990  0.41010  1.0000
  O   O57       1.0  0.17767  0.61620  0.58250  1.0000
  O   O58       1.0  0.82233  0.61620  0.91750  1.0000
  O   O59       1.0  0.67767  0.11620  0.58250  1.0000
  O   O60       1.0  0.32233  0.11620  0.91750  1.0000
  O   O61       1.0  0.82233  0.38380  0.41750  1.0000
  O   O62       1.0  0.17767  0.38380  0.08250  1.0000
  O   O63       1.0  0.32233  0.88380  0.41750  1.0000
  O   O64       1.0  0.67767  0.88380  0.08250  1.0000
  O   O65       1.0  0.25946  0.58640  0.65870  1.0000
  O   O66       1.0  0.74054  0.58640  0.84130  1.0000
  O   O67       1.0  0.75946  0.08640  0.65870  1.0000
  O   O68       1.0  0.24054  0.08640  0.84130  1.0000
  O   O69       1.0  0.74054  0.41360  0.34130  1.0000
  O   O70       1.0  0.25946  0.41360  0.15870  1.0000
  O   O71       1.0  0.24054  0.91360  0.34130  1.0000
  O   O72       1.0  0.75946  0.91360  0.15870  1.0000
  C   C41       1.0  0.22330  0.62400  0.59860  1.0000
  C   C42       1.0  0.77670  0.62400  0.90140  1.0000
  C   C43       1.0  0.72330  0.12400  0.59860  1.0000
  C   C44       1.0  0.27670  0.12400  0.90140  1.0000
  C   C45       1.0  0.77670  0.37600  0.40140  1.0000
  C   C46       1.0  0.22330  0.37600  0.09860  1.0000
  C   C47       1.0  0.27670  0.87600  0.40140  1.0000
  C   C48       1.0  0.72330  0.87600  0.09860  1.0000
  N   N1        1.0  0.10530  0.56130  0.39490  1.0000
  N   N2        1.0  0.89470  0.56130  0.10510  1.0000
  N   N3        1.0  0.60530  0.06130  0.39490  1.0000
  N   N4        1.0  0.39470  0.06130  0.10510  1.0000
  N   N5        1.0  0.89470  0.43870  0.60510  1.0000
  N   N6        1.0  0.10530  0.43870  0.89490  1.0000
  N   N7        1.0  0.39470  0.93870  0.60510  1.0000
  N   N8        1.0  0.60530  0.93870  0.89490  1.0000
  H   H25       1.0  0.13068  0.57749  0.44754  1.0000
  H   H26       1.0  0.86932  0.57749  0.05246  1.0000
  H   H27       1.0  0.63068  0.07749  0.44754  1.0000
  H   H28       1.0  0.36932  0.07749  0.05246  1.0000
  H   H29       1.0  0.86932  0.42251  0.55246  1.0000
  H   H30       1.0  0.13068  0.42251  0.94754  1.0000
  H   H31       1.0  0.36932  0.92251  0.55246  1.0000
  H   H32       1.0  0.63068  0.92251  0.94754  1.0000
  N   N9        1.0  0.10810  0.50900  0.32740  1.0000
  N   N10       1.0  0.89190  0.50900  0.17260  1.0000
  N   N11       1.0  0.60810  0.00900  0.32740  1.0000
  N   N12       1.0  0.39190  0.00900  0.17260  1.0000
  N   N13       1.0  0.89190  0.49100  0.67260  1.0000
  N   N14       1.0  0.10810  0.49100  0.82740  1.0000
  N   N15       1.0  0.39190  0.99100  0.67260  1.0000
  N   N16       1.0  0.60810  0.99100  0.82740  1.0000
  C   C49       1.0  0.02700  0.54580  0.27600  1.0000
  C   C50       1.0  0.97300  0.54580  0.22400  1.0000
  C   C51       1.0  0.52700  0.04580  0.27600  1.0000
  C   C52       1.0  0.47300  0.04580  0.22400  1.0000
  C   C53       1.0  0.97300  0.45420  0.72400  1.0000
  C   C54       1.0  0.02700  0.45420  0.77600  1.0000
  C   C55       1.0  0.47300  0.95420  0.72400  1.0000
  C   C56       1.0  0.52700  0.95420  0.77600  1.0000
  C   C57       1.0  0.05730  0.58440  0.36830  1.0000
  C   C58       1.0  0.94270  0.58440  0.13170  1.0000
  C   C59       1.0  0.55730  0.08440  0.36830  1.0000
  C   C60       1.0  0.44270  0.08440  0.13170  1.0000
  C   C61       1.0  0.94270  0.41560  0.63170  1.0000
  C   C62       1.0  0.05730  0.41560  0.86830  1.0000
  C   C63       1.0  0.44270  0.91560  0.63170  1.0000
  C   C64       1.0  0.55730  0.91560  0.86830  1.0000
  C   C65       1.0  0.06070  0.49920  0.25450  1.0000
  C   C66       1.0  0.93930  0.49920  0.24550  1.0000
  C   C67       1.0  0.56070  0.99920  0.25450  1.0000
  C   C68       1.0  0.43930  0.99920  0.24550  1.0000
  C   C69       1.0  0.93930  0.50080  0.74550  1.0000
  C   C70       1.0  0.06070  0.50080  0.75450  1.0000
  C   C71       1.0  0.43930  0.00080  0.74550  1.0000
  C   C72       1.0  0.56070  0.00080  0.75450  1.0000
  C   C73       1.0  0.04840  0.44850  0.16410  1.0000
  C   C74       1.0  0.95160  0.44850  0.33590  1.0000
  C   C75       1.0  0.54840  0.94850  0.16410  1.0000
  C   C76       1.0  0.45160  0.94850  0.33590  1.0000
  C   C77       1.0  0.95160  0.55150  0.83590  1.0000
  C   C78       1.0  0.04840  0.55150  0.66410  1.0000
  C   C79       1.0  0.45160  0.05150  0.83590  1.0000
  C   C80       1.0  0.54840  0.05150  0.66410  1.0000
  H   H33       1.0  0.07824  0.43915  0.15224  1.0000
  H   H34       1.0  0.92176  0.43915  0.34776  1.0000
  H   H35       1.0  0.57824  0.93915  0.15224  1.0000
  H   H36       1.0  0.42176  0.93915  0.34776  1.0000
  H   H37       1.0  0.92176  0.56085  0.84776  1.0000
  H   H38       1.0  0.07824  0.56085  0.65224  1.0000
  H   H39       1.0  0.42176  0.06085  0.84776  1.0000
  H   H40       1.0  0.57824  0.06085  0.65224  1.0000
  H   H41       1.0  0.02341  0.47090  0.10345  1.0000
  H   H42       1.0  0.97659  0.47090  0.39655  1.0000
  H   H43       1.0  0.52341  0.97090  0.10345  1.0000
  H   H44       1.0  0.47659  0.97090  0.39655  1.0000
  H   H45       1.0  0.97659  0.52910  0.89655  1.0000
  H   H46       1.0  0.02341  0.52910  0.60345  1.0000
  H   H47       1.0  0.47659  0.02910  0.89655  1.0000
  H   H48       1.0  0.52341  0.02910  0.60345  1.0000
  H   H49       1.0  0.03572  0.40282  0.17841  1.0000
  H   H50       1.0  0.96428  0.40282  0.32159  1.0000
  H   H51       1.0  0.53572  0.90282  0.17841  1.0000
  H   H52       1.0  0.46428  0.90282  0.32159  1.0000
  H   H53       1.0  0.96428  0.59718  0.82159  1.0000
  H   H54       1.0  0.03572  0.59718  0.67841  1.0000
  H   H55       1.0  0.46428  0.09718  0.82159  1.0000
  H   H56       1.0  0.53572  0.09718  0.67841  1.0000
  C   C81       1.0  0.04400  0.64470  0.42140  1.0000
  C   C82       1.0  0.95600  0.64470  0.07860  1.0000
  C   C83       1.0  0.54400  0.14470  0.42140  1.0000
  C   C84       1.0  0.45600  0.14470  0.07860  1.0000
  C   C85       1.0  0.95600  0.35530  0.57860  1.0000
  C   C86       1.0  0.04400  0.35530  0.92140  1.0000
  C   C87       1.0  0.45600  0.85530  0.57860  1.0000
  C   C88       1.0  0.54400  0.85530  0.92140  1.0000
  H   H57       1.0  0.05616  0.63383  0.49420  1.0000
  H   H58       1.0  0.94384  0.63383  0.00580  1.0000
  H   H59       1.0  0.55616  0.13383  0.49420  1.0000
  H   H60       1.0  0.44384  0.13383  0.00580  1.0000
  H   H61       1.0  0.94384  0.36617  0.50580  1.0000
  H   H62       1.0  0.05616  0.36617  0.99420  1.0000
  H   H63       1.0  0.44384  0.86617  0.50580  1.0000
  H   H64       1.0  0.55616  0.86617  0.99420  1.0000
  H   H65       1.0  0.00810  0.65018  0.39323  1.0000
  H   H66       1.0  0.99190  0.65018  0.10677  1.0000
  H   H67       1.0  0.50810  0.15018  0.39323  1.0000
  H   H68       1.0  0.49190  0.15018  0.10677  1.0000
  H   H69       1.0  0.99190  0.34982  0.60677  1.0000
  H   H70       1.0  0.00810  0.34982  0.89323  1.0000
  H   H71       1.0  0.49190  0.84982  0.60677  1.0000
  H   H72       1.0  0.50810  0.84982  0.89323  1.0000
  H   H73       1.0  0.05903  0.68964  0.41157  1.0000
  H   H74       1.0  0.94097  0.68964  0.08843  1.0000
  H   H75       1.0  0.55903  0.18964  0.41157  1.0000
  H   H76       1.0  0.44097  0.18964  0.08843  1.0000
  H   H77       1.0  0.94097  0.31036  0.58843  1.0000
  H   H78       1.0  0.05903  0.31036  0.91157  1.0000
  H   H79       1.0  0.44097  0.81036  0.58843  1.0000
  H   H80       1.0  0.55903  0.81036  0.91157  1.0000
  O   O73       1.0  0.15257  0.35670  0.29590  1.0000
  O   O74       1.0  0.84743  0.35670  0.20410  1.0000
  O   O75       1.0  0.65257  0.85670  0.29590  1.0000
  O   O76       1.0  0.34743  0.85670  0.20410  1.0000
  O   O77       1.0  0.84743  0.64330  0.70410  1.0000
  O   O78       1.0  0.15257  0.64330  0.79590  1.0000
  O   O79       1.0  0.34743  0.14330  0.70410  1.0000
  O   O80       1.0  0.65257  0.14330  0.79590  1.0000
  N   N17       1.0  0.12960  0.23680  0.27570  1.0000
  N   N18       1.0  0.87040  0.23680  0.22430  1.0000
  N   N19       1.0  0.62960  0.73680  0.27570  1.0000
  N   N20       1.0  0.37040  0.73680  0.22430  1.0000
  N   N21       1.0  0.87040  0.76320  0.72430  1.0000
  N   N22       1.0  0.12960  0.76320  0.77570  1.0000
  N   N23       1.0  0.37040  0.26320  0.72430  1.0000
  N   N24       1.0  0.62960  0.26320  0.77570  1.0000
  C   C89       1.0  0.14000  0.30290  0.32440  1.0000
  C   C90       1.0  0.86000  0.30290  0.17560  1.0000
  C   C91       1.0  0.64000  0.80290  0.32440  1.0000
  C   C92       1.0  0.36000  0.80290  0.17560  1.0000
  C   C93       1.0  0.86000  0.69710  0.67560  1.0000
  C   C94       1.0  0.14000  0.69710  0.82440  1.0000
  C   C95       1.0  0.36000  0.19710  0.67560  1.0000
  C   C96       1.0  0.64000  0.19710  0.82440  1.0000
  H   H81       1.0  0.13669  0.30579  0.38747  1.0000
  H   H82       1.0  0.86331  0.30579  0.11253  1.0000
  H   H83       1.0  0.63669  0.80579  0.38747  1.0000
  H   H84       1.0  0.36331  0.80579  0.11253  1.0000
  H   H85       1.0  0.86331  0.69421  0.61253  1.0000
  H   H86       1.0  0.13669  0.69421  0.88747  1.0000
  H   H87       1.0  0.36331  0.19421  0.61253  1.0000
  H   H88       1.0  0.63669  0.19421  0.88747  1.0000
  C   C97       1.0  0.11570  0.17410  0.32160  1.0000
  C   C98       1.0  0.88430  0.17410  0.17840  1.0000
  C   C99       1.0  0.61570  0.67410  0.32160  1.0000
  C   C100      1.0  0.38430  0.67410  0.17840  1.0000
  C   C101      1.0  0.88430  0.82590  0.67840  1.0000
  C   C102      1.0  0.11570  0.82590  0.82160  1.0000
  C   C103      1.0  0.38430  0.32590  0.67840  1.0000
  C   C104      1.0  0.61570  0.32590  0.82160  1.0000
  H   H89       1.0  0.13118  0.13040  0.30910  1.0000
  H   H90       1.0  0.86882  0.13040  0.19090  1.0000
  H   H91       1.0  0.63118  0.63040  0.30910  1.0000
  H   H92       1.0  0.36882  0.63040  0.19090  1.0000
  H   H93       1.0  0.86882  0.86960  0.69090  1.0000
  H   H94       1.0  0.13118  0.86960  0.80910  1.0000
  H   H95       1.0  0.36882  0.36960  0.69090  1.0000
  H   H96       1.0  0.63118  0.36960  0.80910  1.0000
  H   H97       1.0  0.07984  0.16839  0.29121  1.0000
  H   H98       1.0  0.92016  0.16839  0.20879  1.0000
  H   H99       1.0  0.57984  0.66839  0.29121  1.0000
  H   H100      1.0  0.42016  0.66839  0.20879  1.0000
  H   H101      1.0  0.92016  0.83161  0.70879  1.0000
  H   H102      1.0  0.07984  0.83161  0.79121  1.0000
  H   H103      1.0  0.42016  0.33161  0.70879  1.0000
  H   H104      1.0  0.57984  0.33161  0.79121  1.0000
  H   H105      1.0  0.12699  0.18167  0.39508  1.0000
  H   H106      1.0  0.87301  0.18167  0.10492  1.0000
  H   H107      1.0  0.62699  0.68167  0.39508  1.0000
  H   H108      1.0  0.37301  0.68167  0.10492  1.0000
  H   H109      1.0  0.87301  0.81833  0.60492  1.0000
  H   H110      1.0  0.12699  0.81833  0.89508  1.0000
  H   H111      1.0  0.37301  0.31833  0.60492  1.0000
  H   H112      1.0  0.62699  0.31833  0.89508  1.0000
  C   C105      1.0  0.13570  0.22450  0.18260  1.0000
  C   C106      1.0  0.86430  0.22450  0.31740  1.0000
  C   C107      1.0  0.63570  0.72450  0.18260  1.0000
  C   C108      1.0  0.36430  0.72450  0.31740  1.0000
  C   C109      1.0  0.86430  0.77550  0.81740  1.0000
  C   C110      1.0  0.13570  0.77550  0.68260  1.0000
  C   C111      1.0  0.36430  0.27550  0.81740  1.0000
  C   C112      1.0  0.63570  0.27550  0.68260  1.0000
  H   H113      1.0  0.10391  0.21139  0.12858  1.0000
  H   H114      1.0  0.89609  0.21139  0.37142  1.0000
  H   H115      1.0  0.60391  0.71139  0.12858  1.0000
  H   H116      1.0  0.39609  0.71139  0.37142  1.0000
  H   H117      1.0  0.89609  0.78861  0.87142  1.0000
  H   H118      1.0  0.10391  0.78861  0.62858  1.0000
  H   H119      1.0  0.39609  0.28861  0.87142  1.0000
  H   H120      1.0  0.60391  0.28861  0.62858  1.0000
  H   H121      1.0  0.15927  0.18502  0.19240  1.0000
  H   H122      1.0  0.84073  0.18502  0.30760  1.0000
  H   H123      1.0  0.65927  0.68502  0.19240  1.0000
  H   H124      1.0  0.34073  0.68502  0.30760  1.0000
  H   H125      1.0  0.84073  0.81498  0.80760  1.0000
  H   H126      1.0  0.15927  0.81498  0.69240  1.0000
  H   H127      1.0  0.34073  0.31498  0.80760  1.0000
  H   H128      1.0  0.65927  0.31498  0.69240  1.0000
  H   H129      1.0  0.14815  0.26857  0.16326  1.0000
  H   H130      1.0  0.85185  0.26857  0.33674  1.0000
  H   H131      1.0  0.64815  0.76857  0.16326  1.0000
  H   H132      1.0  0.35185  0.76857  0.33674  1.0000
  H   H133      1.0  0.85185  0.73143  0.83674  1.0000
  H   H134      1.0  0.14815  0.73143  0.66326  1.0000
  H   H135      1.0  0.35185  0.23143  0.83674  1.0000
  H   H136      1.0  0.64815  0.23143  0.66326  1.0000
  O   O81       1.0  0.26817  0.58150  0.15030  1.0000
  O   O82       1.0  0.73183  0.58150  0.34970  1.0000
  O   O83       1.0  0.76817  0.08150  0.15030  1.0000
  O   O84       1.0  0.23183  0.08150  0.34970  1.0000
  O   O85       1.0  0.73183  0.41850  0.84970  1.0000
  O   O86       1.0  0.26817  0.41850  0.65030  1.0000
  O   O87       1.0  0.23183  0.91850  0.84970  1.0000
  O   O88       1.0  0.76817  0.91850  0.65030  1.0000
  C   C113      1.0  0.24380  0.67740  0.02840  1.0000
  C   C114      1.0  0.75620  0.67740  0.47160  1.0000
  C   C115      1.0  0.74380  0.17740  0.02840  1.0000
  C   C116      1.0  0.25620  0.17740  0.47160  1.0000
  C   C117      1.0  0.75620  0.32260  0.97160  1.0000
  C   C118      1.0  0.24380  0.32260  0.52840  1.0000
  C   C119      1.0  0.25620  0.82260  0.97160  1.0000
  C   C120      1.0  0.74380  0.82260  0.52840  1.0000
  C   C121      1.0  0.26490  0.69010  0.95450  1.0000
  C   C122      1.0  0.73510  0.69010  0.54550  1.0000
  C   C123      1.0  0.76490  0.19010  0.95450  1.0000
  C   C124      1.0  0.23510  0.19010  0.54550  1.0000
  C   C125      1.0  0.73510  0.30990  0.04550  1.0000
  C   C126      1.0  0.26490  0.30990  0.45450  1.0000
  C   C127      1.0  0.23510  0.80990  0.04550  1.0000
  C   C128      1.0  0.76490  0.80990  0.45450  1.0000
  C   C129      1.0  0.23610  0.60180  0.06410  1.0000
  C   C130      1.0  0.76390  0.60180  0.43590  1.0000
  C   C131      1.0  0.73610  0.10180  0.06410  1.0000
  C   C132      1.0  0.26390  0.10180  0.43590  1.0000
  C   C133      1.0  0.76390  0.39820  0.93590  1.0000
  C   C134      1.0  0.23610  0.39820  0.56410  1.0000
  C   C135      1.0  0.26390  0.89820  0.93590  1.0000
  C   C136      1.0  0.73610  0.89820  0.56410  1.0000
  C   C137      1.0  0.22860  0.73610  0.06840  1.0000
  C   C138      1.0  0.77140  0.73610  0.43160  1.0000
  C   C139      1.0  0.72860  0.23610  0.06840  1.0000
  C   C140      1.0  0.27140  0.23610  0.43160  1.0000
  C   C141      1.0  0.77140  0.26390  0.93160  1.0000
  C   C142      1.0  0.22860  0.26390  0.56840  1.0000
  C   C143      1.0  0.27140  0.76390  0.93160  1.0000
  C   C144      1.0  0.72860  0.76390  0.56840  1.0000
  H   H137      1.0  0.21296  0.72702  0.11342  1.0000
  H   H138      1.0  0.78704  0.72702  0.38658  1.0000
  H   H139      1.0  0.71296  0.22702  0.11342  1.0000
  H   H140      1.0  0.28704  0.22702  0.38658  1.0000
  H   H141      1.0  0.78704  0.27298  0.88658  1.0000
  H   H142      1.0  0.21296  0.27298  0.61342  1.0000
  H   H143      1.0  0.28704  0.77298  0.88658  1.0000
  H   H144      1.0  0.71296  0.77298  0.61342  1.0000
  H   H145      1.0  0.15610  0.52500  0.16500  1.0000
  H   H146      1.0  0.84390  0.52500  0.33500  1.0000
  H   H147      1.0  0.65610  0.02500  0.16500  1.0000
  H   H148      1.0  0.34390  0.02500  0.33500  1.0000
  H   H149      1.0  0.84390  0.47500  0.83500  1.0000
  H   H150      1.0  0.15610  0.47500  0.66500  1.0000
  H   H151      1.0  0.34390  0.97500  0.83500  1.0000
  H   H152      1.0  0.65610  0.97500  0.66500  1.0000
