data_image0
_chemical_formula_structural       Cd4Ca2O4C2O4C8H4C6H4O4C4O8C2H2O4C12H4O4C4H4C4O4H4O4C12
_chemical_formula_sum              "Cd4 Ca2 O36 C54 H22"
_cell_length_a       9.865
_cell_length_b       13.2131
_cell_length_c       14.5137
_cell_angle_alpha    90
_cell_angle_beta     109.873
_cell_angle_gamma    90

_space_group_name_H-M_alt    "P 1"
_space_group_IT_number       1

loop_
  _space_group_symop_operation_xyz
  'x, y, z'

loop_
  _atom_site_type_symbol
  _atom_site_label
  _atom_site_symmetry_multiplicity
  _atom_site_fract_x
  _atom_site_fract_y
  _atom_site_fract_z
  _atom_site_occupancy
  Cd  Cd1       1.0  0.94308  0.26984  0.85404  1.0000
  Cd  Cd2       1.0  0.05692  0.26984  0.64596  1.0000
  Cd  Cd3       1.0  0.05692  0.73016  0.14596  1.0000
  Cd  Cd4       1.0  0.94308  0.73016  0.35404  1.0000
  Ca  Ca1       1.0  0.00000  0.50000  0.00000  1.0000
  Ca  Ca2       1.0  0.00000  0.50000  0.50000  1.0000
  O   O1        1.0  0.00250  0.20830  0.00550  1.0000
  O   O2        1.0  0.99750  0.20830  0.49450  1.0000
  O   O3        1.0  0.99750  0.79170  0.99450  1.0000
  O   O4        1.0  0.00250  0.79170  0.50550  1.0000
  C   C1        1.0  0.00000  0.93070  0.25000  1.0000
  C   C2        1.0  0.00000  0.06930  0.75000  1.0000
  O   O5        1.0  0.68530  0.27150  0.84460  1.0000
  O   O6        1.0  0.31470  0.27150  0.65540  1.0000
  O   O7        1.0  0.31470  0.72850  0.15540  1.0000
  O   O8        1.0  0.68530  0.72850  0.34460  1.0000
  C   C3        1.0  0.01200  0.20250  0.16960  1.0000
  C   C4        1.0  0.98800  0.20250  0.33040  1.0000
  C   C5        1.0  0.98800  0.79750  0.83040  1.0000
  C   C6        1.0  0.01200  0.79750  0.66960  1.0000
  C   C7        1.0  0.44210  0.37960  0.86150  1.0000
  C   C8        1.0  0.55790  0.37960  0.63850  1.0000
  C   C9        1.0  0.55790  0.62040  0.13850  1.0000
  C   C10       1.0  0.44210  0.62040  0.36150  1.0000
  H   H1        1.0  0.43250  0.30980  0.85380  1.0000
  H   H2        1.0  0.56750  0.30980  0.64620  1.0000
  H   H3        1.0  0.56750  0.69020  0.14620  1.0000
  H   H4        1.0  0.43250  0.69020  0.35380  1.0000
  C   C11       1.0  0.00000  0.04560  0.25000  1.0000
  C   C12       1.0  0.00000  0.95440  0.75000  1.0000
  C   C13       1.0  0.01300  0.09870  0.16990  1.0000
  C   C14       1.0  0.98700  0.09870  0.33010  1.0000
  C   C15       1.0  0.98700  0.90130  0.83010  1.0000
  C   C16       1.0  0.01300  0.90130  0.66990  1.0000
  H   H5        1.0  0.02240  0.06360  0.11690  1.0000
  H   H6        1.0  0.97760  0.06360  0.38310  1.0000
  H   H7        1.0  0.97760  0.93640  0.88310  1.0000
  H   H8        1.0  0.02240  0.93640  0.61690  1.0000
  O   O9        1.0  0.81770  0.40950  0.88180  1.0000
  O   O10       1.0  0.18230  0.40950  0.61820  1.0000
  O   O11       1.0  0.18230  0.59050  0.11820  1.0000
  O   O12       1.0  0.81770  0.59050  0.38180  1.0000
  C   C17       1.0  0.48500  0.70010  0.90010  1.0000
  C   C18       1.0  0.51500  0.70010  0.59990  1.0000
  C   C19       1.0  0.51500  0.29990  0.09990  1.0000
  C   C20       1.0  0.48500  0.29990  0.40010  1.0000
  O   O13       1.0  0.02920  0.35370  0.08560  1.0000
  O   O14       1.0  0.97080  0.35370  0.41440  1.0000
  O   O15       1.0  0.97080  0.64630  0.91440  1.0000
  O   O16       1.0  0.02920  0.64630  0.58560  1.0000
  O   O17       1.0  0.11820  0.42750  0.90610  1.0000
  O   O18       1.0  0.88180  0.42750  0.59390  1.0000
  O   O19       1.0  0.88180  0.57250  0.09390  1.0000
  O   O20       1.0  0.11820  0.57250  0.40610  1.0000
  C   C21       1.0  0.00000  0.25570  0.25000  1.0000
  C   C22       1.0  0.00000  0.74430  0.75000  1.0000
  H   H9        1.0  0.00000  0.32610  0.25000  1.0000
  H   H10       1.0  0.00000  0.67390  0.75000  1.0000
  O   O21       1.0  0.15550  0.30300  0.81780  1.0000
  O   O22       1.0  0.84450  0.30300  0.68220  1.0000
  O   O23       1.0  0.84450  0.69700  0.18220  1.0000
  O   O24       1.0  0.15550  0.69700  0.31780  1.0000
  C   C23       1.0  0.32710  0.43700  0.86640  1.0000
  C   C24       1.0  0.67290  0.43700  0.63360  1.0000
  C   C25       1.0  0.67290  0.56300  0.13360  1.0000
  C   C26       1.0  0.32710  0.56300  0.36640  1.0000
  C   C27       1.0  0.57280  0.42620  0.86820  1.0000
  C   C28       1.0  0.42720  0.42620  0.63180  1.0000
  C   C29       1.0  0.42720  0.57380  0.13180  1.0000
  C   C30       1.0  0.57280  0.57380  0.36820  1.0000
  C   C31       1.0  0.58320  0.52900  0.87720  1.0000
  C   C32       1.0  0.41680  0.52900  0.62280  1.0000
  C   C33       1.0  0.41680  0.47100  0.12280  1.0000
  C   C34       1.0  0.58320  0.47100  0.37720  1.0000
  H   H11       1.0  0.66890  0.56100  0.88090  1.0000
  H   H12       1.0  0.33110  0.56100  0.61910  1.0000
  H   H13       1.0  0.33110  0.43900  0.11910  1.0000
  H   H14       1.0  0.66890  0.43900  0.38090  1.0000
  O   O25       1.0  0.04100  0.88980  0.18670  1.0000
  O   O26       1.0  0.95900  0.88980  0.31330  1.0000
  O   O27       1.0  0.95900  0.11020  0.81330  1.0000
  O   O28       1.0  0.04100  0.11020  0.68670  1.0000
  C   C35       1.0  0.34210  0.54240  0.87670  1.0000
  C   C36       1.0  0.65790  0.54240  0.62330  1.0000
  C   C37       1.0  0.65790  0.45760  0.12330  1.0000
  C   C38       1.0  0.34210  0.45760  0.37670  1.0000
  H   H15       1.0  0.26600  0.58180  0.88050  1.0000
  H   H16       1.0  0.73400  0.58180  0.61950  1.0000
  H   H17       1.0  0.73400  0.41820  0.11950  1.0000
  H   H18       1.0  0.26600  0.41820  0.38050  1.0000
  C   C39       1.0  0.46730  0.58610  0.88090  1.0000
  C   C40       1.0  0.53270  0.58610  0.61910  1.0000
  C   C41       1.0  0.53270  0.41390  0.11910  1.0000
  C   C42       1.0  0.46730  0.41390  0.38090  1.0000
  O   O29       1.0  0.61170  0.73170  0.90820  1.0000
  O   O30       1.0  0.38830  0.73170  0.59180  1.0000
  O   O31       1.0  0.38830  0.26830  0.09180  1.0000
  O   O32       1.0  0.61170  0.26830  0.40820  1.0000
  H   H19       1.0  0.61660  0.79280  0.91830  1.0000
  H   H20       1.0  0.38340  0.79280  0.58170  1.0000
  H   H21       1.0  0.38340  0.20720  0.08170  1.0000
  H   H22       1.0  0.61660  0.20720  0.41830  1.0000
  O   O33       1.0  0.39100  0.75060  0.90870  1.0000
  O   O34       1.0  0.60900  0.75060  0.59130  1.0000
  O   O35       1.0  0.60900  0.24940  0.09130  1.0000
  O   O36       1.0  0.39100  0.24940  0.40870  1.0000
  C   C43       1.0  0.70030  0.36310  0.86560  1.0000
  C   C44       1.0  0.29970  0.36310  0.63440  1.0000
  C   C45       1.0  0.29970  0.63690  0.13440  1.0000
  C   C46       1.0  0.70030  0.63690  0.36560  1.0000
  C   C47       1.0  0.01300  0.25930  0.08100  1.0000
  C   C48       1.0  0.98700  0.25930  0.41900  1.0000
  C   C49       1.0  0.98700  0.74070  0.91900  1.0000
  C   C50       1.0  0.01300  0.74070  0.58100  1.0000
  C   C51       1.0  0.18910  0.38920  0.86140  1.0000
  C   C52       1.0  0.81090  0.38920  0.63860  1.0000
  C   C53       1.0  0.81090  0.61080  0.13860  1.0000
  C   C54       1.0  0.18910  0.61080  0.36140  1.0000
