data_image0
_chemical_formula_structural       Eu4O8C4H4O4C4H4O4C4H4O4C8H4O4C4O4C4H4C8H4C16H4C8H4C4O4
_chemical_formula_sum              "Eu4 O32 C64 H32"
_cell_length_a       11.8298
_cell_length_b       10.2009
_cell_length_c       17.042
_cell_angle_alpha    90
_cell_angle_beta     95.15
_cell_angle_gamma    90

_space_group_name_H-M_alt    "P 1"
_space_group_IT_number       1

loop_
  _space_group_symop_operation_xyz
  'x, y, z'

loop_
  _atom_site_type_symbol
  _atom_site_label
  _atom_site_symmetry_multiplicity
  _atom_site_fract_x
  _atom_site_fract_y
  _atom_site_fract_z
  _atom_site_occupancy
  Eu  Eu1       1.0  0.89371  0.85841  0.02432  1.0000
  Eu  Eu2       1.0  0.60629  0.35841  0.47568  1.0000
  Eu  Eu3       1.0  0.10629  0.14159  0.97568  1.0000
  Eu  Eu4       1.0  0.39371  0.64159  0.52432  1.0000
  O   O1        1.0  0.94240  0.63190  0.05239  1.0000
  O   O2        1.0  0.55760  0.13190  0.44761  1.0000
  O   O3        1.0  0.05760  0.36810  0.94761  1.0000
  O   O4        1.0  0.44240  0.86810  0.55239  1.0000
  O   O5        1.0  0.82720  0.72350  0.13156  1.0000
  O   O6        1.0  0.67280  0.22350  0.36844  1.0000
  O   O7        1.0  0.17280  0.27650  0.86844  1.0000
  O   O8        1.0  0.32720  0.77650  0.63156  1.0000
  C   C1        1.0  0.70410  0.36380  0.20050  1.0000
  C   C2        1.0  0.79590  0.86380  0.29950  1.0000
  C   C3        1.0  0.29590  0.63620  0.79950  1.0000
  C   C4        1.0  0.20410  0.13620  0.70050  1.0000
  H   H1        1.0  0.65280  0.35910  0.23870  1.0000
  H   H2        1.0  0.84720  0.85910  0.26130  1.0000
  H   H3        1.0  0.34720  0.64090  0.76130  1.0000
  H   H4        1.0  0.15280  0.14090  0.73870  1.0000
  O   O9        1.0  0.92780  0.13030  0.02585  1.0000
  O   O10       1.0  0.57220  0.63030  0.47415  1.0000
  O   O11       1.0  0.07220  0.86970  0.97415  1.0000
  O   O12       1.0  0.42780  0.36970  0.52585  1.0000
  C   C5        1.0  0.86280  0.37740  0.08850  1.0000
  C   C6        1.0  0.63720  0.87740  0.41150  1.0000
  C   C7        1.0  0.13720  0.62260  0.91150  1.0000
  C   C8        1.0  0.36280  0.12260  0.58850  1.0000
  H   H5        1.0  0.91680  0.38150  0.05210  1.0000
  H   H6        1.0  0.58320  0.88150  0.44790  1.0000
  H   H7        1.0  0.08320  0.61850  0.94790  1.0000
  H   H8        1.0  0.41680  0.11850  0.55210  1.0000
  O   O13       1.0  0.51730  0.58760  0.63675  1.0000
  O   O14       1.0  0.98270  0.08760  0.86325  1.0000
  O   O15       1.0  0.48270  0.41240  0.36325  1.0000
  O   O16       1.0  0.01730  0.91240  0.13675  1.0000
  C   C9        1.0  0.63030  0.62170  0.78644  1.0000
  C   C10       1.0  0.86970  0.12170  0.71356  1.0000
  C   C11       1.0  0.36970  0.37830  0.21356  1.0000
  C   C12       1.0  0.13030  0.87830  0.28644  1.0000
  H   H9        1.0  0.57000  0.67760  0.77170  1.0000
  H   H10       1.0  0.93000  0.17760  0.72830  1.0000
  H   H11       1.0  0.43000  0.32240  0.22830  1.0000
  H   H12       1.0  0.07000  0.82240  0.27170  1.0000
  O   O17       1.0  0.72650  0.76400  0.97544  1.0000
  O   O18       1.0  0.77350  0.26400  0.52456  1.0000
  O   O19       1.0  0.27350  0.23600  0.02456  1.0000
  O   O20       1.0  0.22650  0.73600  0.47544  1.0000
  C   C13       1.0  0.81380  0.25710  0.10637  1.0000
  C   C14       1.0  0.68620  0.75710  0.39363  1.0000
  C   C15       1.0  0.18620  0.74290  0.89363  1.0000
  C   C16       1.0  0.31380  0.24290  0.60637  1.0000
  C   C17       1.0  0.73340  0.25170  0.16110  1.0000
  C   C18       1.0  0.76660  0.75170  0.33890  1.0000
  C   C19       1.0  0.26660  0.74830  0.83890  1.0000
  C   C20       1.0  0.23340  0.24830  0.66110  1.0000
  H   H13       1.0  0.69900  0.17230  0.17120  1.0000
  H   H14       1.0  0.80100  0.67230  0.32880  1.0000
  H   H15       1.0  0.30100  0.82770  0.82880  1.0000
  H   H16       1.0  0.19900  0.32770  0.67120  1.0000
  O   O21       1.0  0.78870  0.03130  0.07834  1.0000
  O   O22       1.0  0.71130  0.53130  0.42166  1.0000
  O   O23       1.0  0.21130  0.96870  0.92166  1.0000
  O   O24       1.0  0.28870  0.46870  0.57834  1.0000
  C   C21       1.0  0.84570  0.13270  0.06780  1.0000
  C   C22       1.0  0.65430  0.63270  0.43220  1.0000
  C   C23       1.0  0.15430  0.86730  0.93220  1.0000
  C   C24       1.0  0.34570  0.36730  0.56780  1.0000
  O   O25       1.0  0.57090  0.80660  0.89710  1.0000
  O   O26       1.0  0.92910  0.30660  0.60290  1.0000
  O   O27       1.0  0.42910  0.19340  0.10290  1.0000
  O   O28       1.0  0.07090  0.69340  0.39710  1.0000
  C   C25       1.0  0.75200  0.48310  0.18260  1.0000
  C   C26       1.0  0.74800  0.98310  0.31740  1.0000
  C   C27       1.0  0.24800  0.51690  0.81740  1.0000
  C   C28       1.0  0.25200  0.01690  0.68260  1.0000
  H   H17       1.0  0.73200  0.55860  0.20860  1.0000
  H   H18       1.0  0.76800  0.05860  0.29140  1.0000
  H   H19       1.0  0.26800  0.44140  0.79140  1.0000
  H   H20       1.0  0.23200  0.94140  0.70860  1.0000
  C   C29       1.0  0.69020  0.63410  0.86040  1.0000
  C   C30       1.0  0.80980  0.13410  0.63960  1.0000
  C   C31       1.0  0.30980  0.36590  0.13960  1.0000
  C   C32       1.0  0.19020  0.86590  0.36040  1.0000
  C   C33       1.0  0.77780  0.54790  0.88320  1.0000
  C   C34       1.0  0.72220  0.04790  0.61680  1.0000
  C   C35       1.0  0.22220  0.45210  0.11680  1.0000
  C   C36       1.0  0.27780  0.95210  0.38320  1.0000
  H   H21       1.0  0.81750  0.55650  0.93260  1.0000
  H   H22       1.0  0.68250  0.05650  0.56740  1.0000
  H   H23       1.0  0.18250  0.44350  0.06740  1.0000
  H   H24       1.0  0.31750  0.94350  0.43260  1.0000
  C   C37       1.0  0.60210  0.51540  0.65299  1.0000
  C   C38       1.0  0.89790  0.01540  0.84701  1.0000
  C   C39       1.0  0.39790  0.48460  0.34701  1.0000
  C   C40       1.0  0.10210  0.98460  0.15299  1.0000
  C   C41       1.0  0.87060  0.62350  0.10294  1.0000
  C   C42       1.0  0.62940  0.12350  0.39706  1.0000
  C   C43       1.0  0.12940  0.37650  0.89706  1.0000
  C   C44       1.0  0.37060  0.87650  0.60294  1.0000
  C   C45       1.0  0.65820  0.74420  0.91450  1.0000
  C   C46       1.0  0.84180  0.24420  0.58550  1.0000
  C   C47       1.0  0.34180  0.25580  0.08550  1.0000
  C   C48       1.0  0.15820  0.75580  0.41450  1.0000
  C   C49       1.0  0.74930  0.43820  0.75840  1.0000
  C   C50       1.0  0.75070  0.93820  0.74160  1.0000
  C   C51       1.0  0.25070  0.56180  0.24160  1.0000
  C   C52       1.0  0.24930  0.06180  0.25840  1.0000
  H   H25       1.0  0.76940  0.37310  0.72410  1.0000
  H   H26       1.0  0.73060  0.87310  0.77590  1.0000
  H   H27       1.0  0.23060  0.62690  0.27590  1.0000
  H   H28       1.0  0.26940  0.12690  0.22410  1.0000
  C   C53       1.0  0.66160  0.52490  0.73476  1.0000
  C   C54       1.0  0.83840  0.02490  0.76524  1.0000
  C   C55       1.0  0.33840  0.47510  0.26524  1.0000
  C   C56       1.0  0.16160  0.97510  0.23476  1.0000
  C   C57       1.0  0.80650  0.44870  0.83260  1.0000
  C   C58       1.0  0.69350  0.94870  0.66740  1.0000
  C   C59       1.0  0.19350  0.55130  0.16740  1.0000
  C   C60       1.0  0.30650  0.05130  0.33260  1.0000
  H   H29       1.0  0.86390  0.38970  0.84860  1.0000
  H   H30       1.0  0.63610  0.88970  0.65140  1.0000
  H   H31       1.0  0.13610  0.61030  0.15140  1.0000
  H   H32       1.0  0.36390  0.11030  0.34860  1.0000
  C   C61       1.0  0.82960  0.49090  0.12597  1.0000
  C   C62       1.0  0.67040  0.99090  0.37403  1.0000
  C   C63       1.0  0.17040  0.50910  0.87403  1.0000
  C   C64       1.0  0.32960  0.00910  0.62597  1.0000
  O   O29       1.0  0.64230  0.43560  0.60657  1.0000
  O   O30       1.0  0.85770  0.93560  0.89343  1.0000
  O   O31       1.0  0.35770  0.56440  0.39343  1.0000
  O   O32       1.0  0.14230  0.06440  0.10657  1.0000
