data_image0
_chemical_formula_structural       C6H2C2H2C2H2C4H2C8H2C2H2C2H2C4H2C8H2C2H2C2H2C4H2C8H2C2H2C2H2C4H2C8H2C2H2C2H2C4H2C8H2C2H2C2H2C4H2C8H2C2H2C2H2C4H2C8H2C2H2C2H2C4H2C2H16N32Nd4O32
_chemical_formula_sum              "C128 H80 N32 Nd4 O32"
_cell_length_a       13.723
_cell_length_b       16.146
_cell_length_c       16.324
_cell_angle_alpha    90.02
_cell_angle_beta     94.366
_cell_angle_gamma    102.215

_space_group_name_H-M_alt    "P 1"
_space_group_IT_number       1

loop_
  _space_group_symop_operation_xyz
  'x, y, z'

loop_
  _atom_site_type_symbol
  _atom_site_label
  _atom_site_symmetry_multiplicity
  _atom_site_fract_x
  _atom_site_fract_y
  _atom_site_fract_z
  _atom_site_occupancy
  C   C1        1.0  0.84000  0.47970  0.21180  1.0000
  C   C2        1.0  0.16000  0.52030  0.78820  1.0000
  C   C3        1.0  0.80740  0.55320  0.16990  1.0000
  C   C4        1.0  0.19260  0.44680  0.83010  1.0000
  C   C5        1.0  0.87250  0.63180  0.16720  1.0000
  C   C6        1.0  0.12750  0.36820  0.83280  1.0000
  H   H1        1.0  0.93850  0.63920  0.18880  1.0000
  H   H2        1.0  0.06150  0.36080  0.81120  1.0000
  C   C7        1.0  0.83700  0.69850  0.13190  1.0000
  C   C8        1.0  0.16300  0.30150  0.86810  1.0000
  H   H3        1.0  0.87940  0.75160  0.13050  1.0000
  H   H4        1.0  0.12060  0.24840  0.86950  1.0000
  C   C9        1.0  0.73910  0.68740  0.09850  1.0000
  C   C10       1.0  0.26090  0.31260  0.90150  1.0000
  H   H5        1.0  0.71740  0.73250  0.07320  1.0000
  H   H6        1.0  0.28260  0.26750  0.92680  1.0000
  C   C11       1.0  0.67340  0.61000  0.10220  1.0000
  C   C12       1.0  0.32660  0.39000  0.89780  1.0000
  C   C13       1.0  0.70990  0.54290  0.13750  1.0000
  C   C14       1.0  0.29010  0.45710  0.86250  1.0000
  H   H7        1.0  0.66740  0.48980  0.13910  1.0000
  H   H8        1.0  0.33260  0.51020  0.86090  1.0000
  C   C15       1.0  0.57040  0.60010  0.06790  1.0000
  C   C16       1.0  0.42960  0.39990  0.93210  1.0000
  C   C17       1.0  0.40720  0.57150  0.05070  1.0000
  C   C18       1.0  0.59280  0.42850  0.94930  1.0000
  C   C19       1.0  0.30090  0.54650  0.06640  1.0000
  C   C20       1.0  0.69910  0.45350  0.93360  1.0000
  C   C21       1.0  0.23990  0.60090  0.04160  1.0000
  C   C22       1.0  0.76010  0.39910  0.95840  1.0000
  H   H9        1.0  0.26600  0.65050  0.01470  1.0000
  H   H10       1.0  0.73400  0.34950  0.98530  1.0000
  C   C23       1.0  0.14040  0.58180  0.05670  1.0000
  C   C24       1.0  0.85960  0.41820  0.94330  1.0000
  H   H11       1.0  0.09980  0.61920  0.04040  1.0000
  H   H12       1.0  0.90020  0.38080  0.95960  1.0000
  C   C25       1.0  0.10020  0.50860  0.09540  1.0000
  C   C26       1.0  0.89980  0.49140  0.90460  1.0000
  H   H13       1.0  0.03350  0.49700  0.10730  1.0000
  H   H14       1.0  0.96650  0.50300  0.89270  1.0000
  C   C27       1.0  0.16120  0.45230  0.11640  1.0000
  C   C28       1.0  0.83880  0.54770  0.88360  1.0000
  C   C29       1.0  0.26060  0.47160  0.10150  1.0000
  C   C30       1.0  0.73940  0.52840  0.89850  1.0000
  H   H15       1.0  0.30090  0.43330  0.11540  1.0000
  H   H16       1.0  0.69910  0.56670  0.88460  1.0000
  C   C31       1.0  0.11700  0.37130  0.15920  1.0000
  C   C32       1.0  0.88300  0.62870  0.84080  1.0000
  C   C33       1.0  0.83730  0.38690  0.42720  1.0000
  C   C34       1.0  0.16270  0.61310  0.57280  1.0000
  C   C35       1.0  0.80370  0.41460  0.50680  1.0000
  C   C36       1.0  0.19630  0.58540  0.49320  1.0000
  C   C37       1.0  0.87430  0.43860  0.57400  1.0000
  C   C38       1.0  0.12570  0.56140  0.42600  1.0000
  H   H17       1.0  0.94170  0.44020  0.56910  1.0000
  H   H18       1.0  0.05830  0.55980  0.43090  1.0000
  C   C39       1.0  0.84170  0.45940  0.64650  1.0000
  C   C40       1.0  0.15830  0.54060  0.35350  1.0000
  H   H19       1.0  0.88770  0.47510  0.69160  1.0000
  H   H20       1.0  0.11230  0.52490  0.30840  1.0000
  C   C41       1.0  0.74100  0.45740  0.65440  1.0000
  C   C42       1.0  0.25900  0.54260  0.34560  1.0000
  H   H21       1.0  0.72030  0.47110  0.70470  1.0000
  H   H22       1.0  0.27970  0.52890  0.29530  1.0000
  C   C43       1.0  0.67140  0.43530  0.58770  1.0000
  C   C44       1.0  0.32860  0.56470  0.41230  1.0000
  C   C45       1.0  0.70420  0.41240  0.51430  1.0000
  C   C46       1.0  0.29580  0.58760  0.48570  1.0000
  H   H23       1.0  0.65820  0.39540  0.46950  1.0000
  H   H24       1.0  0.34180  0.60460  0.53050  1.0000
  C   C47       1.0  0.56800  0.44180  0.59420  1.0000
  C   C48       1.0  0.43200  0.55820  0.40580  1.0000
  C   C49       1.0  0.40470  0.42090  0.58220  1.0000
  C   C50       1.0  0.59530  0.57910  0.41780  1.0000
  C   C51       1.0  0.29890  0.38400  0.56090  1.0000
  C   C52       1.0  0.70110  0.61600  0.43910  1.0000
  C   C53       1.0  0.22940  0.38790  0.61640  1.0000
  C   C54       1.0  0.77060  0.61210  0.38360  1.0000
  H   H25       1.0  0.25010  0.40930  0.66920  1.0000
  H   H26       1.0  0.74990  0.59070  0.33080  1.0000
  C   C55       1.0  0.12900  0.36020  0.59350  1.0000
  C   C56       1.0  0.87100  0.63980  0.40650  1.0000
  H   H27       1.0  0.08210  0.36170  0.63140  1.0000
  H   H28       1.0  0.91790  0.63830  0.36860  1.0000
  C   C57       1.0  0.09760  0.33000  0.51380  1.0000
  C   C58       1.0  0.90240  0.67000  0.48620  1.0000
  H   H29       1.0  0.02980  0.31260  0.49810  1.0000
  H   H30       1.0  0.97020  0.68740  0.50190  1.0000
  C   C59       1.0  0.16670  0.32610  0.45870  1.0000
  C   C60       1.0  0.83330  0.67390  0.54130  1.0000
  C   C61       1.0  0.26720  0.35280  0.48280  1.0000
  C   C62       1.0  0.73280  0.64720  0.51720  1.0000
  H   H31       1.0  0.31430  0.34960  0.44550  1.0000
  H   H32       1.0  0.68570  0.65040  0.55450  1.0000
  C   C63       1.0  0.13310  0.29260  0.37370  1.0000
  C   C64       1.0  0.86690  0.70740  0.62630  1.0000
  C   C65       1.0  0.86930  0.12080  0.33400  1.0000
  C   C66       1.0  0.13070  0.87920  0.66600  1.0000
  C   C67       1.0  0.82140  0.04280  0.37660  1.0000
  C   C68       1.0  0.17860  0.95720  0.62340  1.0000
  C   C69       1.0  0.87780  0.98340  0.39580  1.0000
  C   C70       1.0  0.12220  0.01660  0.60420  1.0000
  H   H33       1.0  0.94470  0.99370  0.38430  1.0000
  H   H34       1.0  0.05530  0.00630  0.61570  1.0000
  C   C71       1.0  0.83560  0.90930  0.43170  1.0000
  C   C72       1.0  0.16440  0.09070  0.56830  1.0000
  H   H35       1.0  0.87510  0.87050  0.44620  1.0000
  H   H36       1.0  0.12490  0.12950  0.55380  1.0000
  C   C73       1.0  0.73610  0.89060  0.44700  1.0000
  C   C74       1.0  0.26390  0.10940  0.55300  1.0000
  H   H37       1.0  0.70820  0.83930  0.47030  1.0000
  H   H38       1.0  0.29180  0.16070  0.52970  1.0000
  C   C75       1.0  0.67770  0.94960  0.42690  1.0000
  C   C76       1.0  0.32230  0.05040  0.57310  1.0000
  C   C77       1.0  0.72180  0.02630  0.39360  1.0000
  C   C78       1.0  0.27820  0.97370  0.60640  1.0000
  H   H39       1.0  0.68410  0.06700  0.38260  1.0000
  H   H40       1.0  0.31590  0.93300  0.61740  1.0000
  C   C79       1.0  0.57240  0.92530  0.44440  1.0000
  C   C80       1.0  0.42760  0.07470  0.55560  1.0000
  C   C81       1.0  0.40840  0.89720  0.43100  1.0000
  C   C82       1.0  0.59160  0.10280  0.56900  1.0000
  C   C83       1.0  0.30640  0.89030  0.39650  1.0000
  C   C84       1.0  0.69360  0.10970  0.60350  1.0000
  C   C85       1.0  0.23790  0.81190  0.39880  1.0000
  C   C86       1.0  0.76210  0.18810  0.60120  1.0000
  H   H41       1.0  0.25790  0.76520  0.42260  1.0000
  H   H42       1.0  0.74210  0.23480  0.57740  1.0000
  C   C87       1.0  0.14060  0.80510  0.36530  1.0000
  C   C88       1.0  0.85940  0.19490  0.63470  1.0000
  H   H43       1.0  0.09420  0.75440  0.36920  1.0000
  H   H44       1.0  0.90580  0.24560  0.63080  1.0000
  C   C89       1.0  0.11170  0.87300  0.32610  1.0000
  C   C90       1.0  0.88830  0.12700  0.67390  1.0000
  H   H45       1.0  0.04790  0.86610  0.29970  1.0000
  H   H46       1.0  0.95210  0.13390  0.70030  1.0000
  C   C91       1.0  0.17700  0.95090  0.32590  1.0000
  C   C92       1.0  0.82300  0.04910  0.67410  1.0000
  C   C93       1.0  0.27450  0.95890  0.36050  1.0000
  C   C94       1.0  0.72550  0.04110  0.63950  1.0000
  H   H47       1.0  0.31900  0.01100  0.35960  1.0000
  H   H48       1.0  0.68100  0.98900  0.64040  1.0000
  C   C95       1.0  0.14580  0.02560  0.28740  1.0000
  C   C96       1.0  0.85420  0.97440  0.71260  1.0000
  C   C97       1.0  0.84560  0.21430  0.12730  1.0000
  C   C98       1.0  0.15440  0.78570  0.87270  1.0000
  C   C99       1.0  0.81380  0.17900  0.04090  1.0000
  C   C100      1.0  0.18620  0.82100  0.95910  1.0000
  C   C101      1.0  0.88220  0.17600  0.98570  1.0000
  C   C102      1.0  0.11780  0.82400  0.01430  1.0000
  H   H49       1.0  0.94990  0.19470  0.00120  1.0000
  H   H50       1.0  0.05010  0.80530  0.99880  1.0000
  C   C103      1.0  0.85220  0.14520  0.90600  1.0000
  C   C104      1.0  0.14780  0.85480  0.09400  1.0000
  H   H51       1.0  0.89930  0.14440  0.86810  1.0000
  H   H52       1.0  0.10070  0.85560  0.13190  1.0000
  C   C105      1.0  0.75090  0.11570  0.88390  1.0000
  C   C106      1.0  0.24910  0.88430  0.11610  1.0000
  H   H53       1.0  0.73010  0.09480  0.83090  1.0000
  H   H54       1.0  0.26990  0.90520  0.16910  1.0000
  C   C107      1.0  0.68090  0.11720  0.93990  1.0000
  C   C108      1.0  0.31910  0.88280  0.06010  1.0000
  C   C109      1.0  0.71240  0.14970  0.01880  1.0000
  C   C110      1.0  0.28760  0.85030  0.98120  1.0000
  H   H55       1.0  0.66570  0.15180  0.05670  1.0000
  H   H56       1.0  0.33430  0.84820  0.94330  1.0000
  C   C111      1.0  0.57510  0.07910  0.91630  1.0000
  C   C112      1.0  0.42490  0.92090  0.08370  1.0000
  C   C113      1.0  0.41240  0.05210  0.90500  1.0000
  C   C114      1.0  0.58760  0.94790  0.09500  1.0000
  C   C115      1.0  0.30910  0.05860  0.91180  1.0000
  C   C116      1.0  0.69090  0.94140  0.08820  1.0000
  C   C117      1.0  0.23980  0.03590  0.84540  1.0000
  C   C118      1.0  0.76020  0.96410  0.15460  1.0000
  H   H57       1.0  0.25920  0.01840  0.79600  1.0000
  H   H58       1.0  0.74080  0.98160  0.20400  1.0000
  C   C119      1.0  0.14100  0.03970  0.85330  1.0000
  C   C120      1.0  0.85900  0.96030  0.14670  1.0000
  H   H59       1.0  0.09420  0.02560  0.80850  1.0000
  H   H60       1.0  0.90580  0.97440  0.19150  1.0000
  C   C121      1.0  0.11100  0.06440  0.92810  1.0000
  C   C122      1.0  0.88900  0.93560  0.07190  1.0000
  H   H61       1.0  0.04390  0.06420  0.93340  1.0000
  H   H62       1.0  0.95610  0.93580  0.06660  1.0000
  C   C123      1.0  0.18060  0.08900  0.99400  1.0000
  C   C124      1.0  0.81940  0.91100  0.00600  1.0000
  C   C125      1.0  0.27970  0.08640  0.98480  1.0000
  C   C126      1.0  0.72030  0.91360  0.01520  1.0000
  H   H63       1.0  0.32750  0.10370  0.02840  1.0000
  H   H64       1.0  0.67250  0.89630  0.97160  1.0000
  C   C127      1.0  0.15050  0.11920  0.07240  1.0000
  C   C128      1.0  0.84950  0.88080  0.92760  1.0000
  H   H65       1.0  0.50400  0.56740  0.21370  1.0000
  H   H66       1.0  0.49600  0.43260  0.78630  1.0000
  H   H67       1.0  0.50320  0.27640  0.55650  1.0000
  H   H68       1.0  0.49680  0.72360  0.44350  1.0000
  H   H69       1.0  0.52090  0.93630  0.29280  1.0000
  H   H70       1.0  0.47910  0.06370  0.70720  1.0000
  H   H71       1.0  0.51190  0.48450  0.18410  1.0000
  H   H72       1.0  0.48810  0.51550  0.81590  1.0000
  H   H73       1.0  0.50950  0.32360  0.48080  1.0000
  H   H74       1.0  0.49050  0.67640  0.51920  1.0000
  H   H75       1.0  0.53460  0.02220  0.32440  1.0000
  H   H76       1.0  0.46540  0.97780  0.67560  1.0000
  H   H77       1.0  0.52110  0.23060  0.94360  1.0000
  H   H78       1.0  0.47890  0.76940  0.05640  1.0000
  H   H79       1.0  0.51690  0.19460  0.02500  1.0000
  H   H80       1.0  0.48310  0.80540  0.97500  1.0000
  N   N1        1.0  0.54540  0.63289  0.99744  1.0000
  N   N2        1.0  0.45460  0.36711  0.00256  1.0000
  N   N3        1.0  0.44159  0.61523  0.98648  1.0000
  N   N4        1.0  0.55841  0.38477  0.01352  1.0000
  N   N5        1.0  0.48577  0.55927  0.10059  1.0000
  N   N6        1.0  0.51423  0.44073  0.89941  1.0000
  N   N7        1.0  0.47525  0.52422  0.17933  1.0000
  N   N8        1.0  0.52475  0.47578  0.82067  1.0000
  N   N9        1.0  0.54199  0.50403  0.63490  1.0000
  N   N10       1.0  0.45801  0.49597  0.36510  1.0000
  N   N11       1.0  0.43806  0.49025  0.62740  1.0000
  N   N12       1.0  0.56194  0.50975  0.37260  1.0000
  N   N13       1.0  0.48364  0.38982  0.55989  1.0000
  N   N14       1.0  0.51636  0.61018  0.44011  1.0000
  N   N15       1.0  0.47269  0.30946  0.52379  1.0000
  N   N16       1.0  0.52731  0.69054  0.47621  1.0000
  N   N17       1.0  0.54056  0.88240  0.50764  1.0000
  N   N18       1.0  0.45944  0.11760  0.49236  1.0000
  N   N19       1.0  0.43701  0.86499  0.50005  1.0000
  N   N20       1.0  0.56299  0.13501  0.49995  1.0000
  N   N21       1.0  0.49192  0.93747  0.39484  1.0000
  N   N22       1.0  0.50808  0.06253  0.60516  1.0000
  N   N23       1.0  0.48999  0.97291  0.31621  1.0000
  N   N24       1.0  0.51001  0.02710  0.68380  1.0000
  N   N25       1.0  0.54495  0.00895  0.87350  1.0000
  N   N26       1.0  0.45505  0.99105  0.12650  1.0000
  N   N27       1.0  0.44166  0.99137  0.86620  1.0000
  N   N28       1.0  0.55834  0.00863  0.13380  1.0000
  N   N29       1.0  0.49514  0.10751  0.93869  1.0000
  N   N30       1.0  0.50486  0.89249  0.06131  1.0000
  N   N31       1.0  0.49159  0.18672  0.97266  1.0000
  N   N32       1.0  0.50841  0.81327  0.02734  1.0000
  Nd  Nd1       1.0  0.90176  0.32802  0.27702  1.0000
  Nd  Nd2       1.0  0.09824  0.67199  0.72298  1.0000
  Nd  Nd3       1.0  0.08304  0.17544  0.22154  1.0000
  Nd  Nd4       1.0  0.91695  0.82456  0.77846  1.0000
  O   O1        1.0  0.92520  0.48829  0.24698  1.0000
  O   O2        1.0  0.07480  0.51171  0.75302  1.0000
  O   O3        1.0  0.78102  0.40953  0.21051  1.0000
  O   O4        1.0  0.21898  0.59047  0.78949  1.0000
  O   O5        1.0  0.15754  0.30892  0.15761  1.0000
  O   O6        1.0  0.84246  0.69108  0.84239  1.0000
  O   O7        1.0  0.03740  0.37032  0.19489  1.0000
  O   O8        1.0  0.96260  0.62969  0.80511  1.0000
  O   O9        1.0  0.04326  0.28510  0.34584  1.0000
  O   O10       1.0  0.95674  0.71490  0.65416  1.0000
  O   O11       1.0  0.19443  0.27127  0.32957  1.0000
  O   O12       1.0  0.80557  0.72873  0.67043  1.0000
  O   O13       1.0  0.92634  0.40143  0.41423  1.0000
  O   O14       1.0  0.07366  0.59857  0.58577  1.0000
  O   O15       1.0  0.95335  0.12075  0.30688  1.0000
  O   O16       1.0  0.04665  0.87925  0.69312  1.0000
  O   O17       1.0  0.82584  0.18247  0.32597  1.0000
  O   O18       1.0  0.17416  0.81753  0.67403  1.0000
  O   O19       1.0  0.19344  0.09993  0.30815  1.0000
  O   O20       1.0  0.80656  0.90007  0.69185  1.0000
  O   O21       1.0  0.07390  0.01534  0.23368  1.0000
  O   O22       1.0  0.92610  0.98466  0.76632  1.0000
  O   O23       1.0  0.92919  0.21144  0.15990  1.0000
  O   O24       1.0  0.07081  0.78856  0.84010  1.0000
  O   O25       1.0  0.78562  0.24757  0.16278  1.0000
  O   O26       1.0  0.21438  0.75243  0.83722  1.0000
  O   O27       1.0  0.21575  0.14364  0.13229  1.0000
  O   O28       1.0  0.78425  0.85636  0.86771  1.0000
  O   O29       1.0  0.06039  0.12114  0.07855  1.0000
  O   O30       1.0  0.93961  0.87886  0.92145  1.0000
  O   O31       1.0  0.77366  0.34657  0.37483  1.0000
  O   O32       1.0  0.22634  0.65343  0.62517  1.0000
