data_image0
_chemical_formula_structural       Ni6O32N8C12H4C20H4C4H4C12H4C4H4C12H4
_chemical_formula_sum              "Ni6 O32 N8 C64 H24"
_cell_length_a       12.7135
_cell_length_b       14.5529
_cell_length_c       13.147
_cell_angle_alpha    90
_cell_angle_beta     118.629
_cell_angle_gamma    90

_space_group_name_H-M_alt    "P 1"
_space_group_IT_number       1

loop_
  _space_group_symop_operation_xyz
  'x, y, z'

loop_
  _atom_site_type_symbol
  _atom_site_label
  _atom_site_symmetry_multiplicity
  _atom_site_fract_x
  _atom_site_fract_y
  _atom_site_fract_z
  _atom_site_occupancy
  Ni  Ni1       1.0  0.50000  0.50000  0.00000  1.0000
  Ni  Ni2       1.0  0.50000  0.00000  0.50000  1.0000
  Ni  Ni3       1.0  0.77553  0.44045  0.02578  1.0000
  Ni  Ni4       1.0  0.22447  0.94045  0.47422  1.0000
  Ni  Ni5       1.0  0.22447  0.55955  0.97422  1.0000
  Ni  Ni6       1.0  0.77553  0.05955  0.52578  1.0000
  O   O1        1.0  0.53970  0.57250  0.88410  1.0000
  O   O2        1.0  0.46030  0.07250  0.61590  1.0000
  O   O3        1.0  0.46030  0.42750  0.11590  1.0000
  O   O4        1.0  0.53970  0.92750  0.38410  1.0000
  O   O5        1.0  0.38670  0.88720  0.49520  1.0000
  O   O6        1.0  0.61330  0.38720  0.00480  1.0000
  O   O7        1.0  0.61330  0.11280  0.50480  1.0000
  O   O8        1.0  0.38670  0.61280  0.99520  1.0000
  O   O9        1.0  0.82630  0.53550  0.15220  1.0000
  O   O10       1.0  0.17370  0.03550  0.34780  1.0000
  O   O11       1.0  0.17370  0.46450  0.84780  1.0000
  O   O12       1.0  0.82630  0.96450  0.65220  1.0000
  O   O13       1.0  0.64850  0.55130  0.14600  1.0000
  O   O14       1.0  0.35150  0.05130  0.35400  1.0000
  O   O15       1.0  0.35150  0.44870  0.85400  1.0000
  O   O16       1.0  0.64850  0.94870  0.64600  1.0000
  O   O17       1.0  0.70950  0.52450  0.88730  1.0000
  O   O18       1.0  0.29050  0.02450  0.61270  1.0000
  O   O19       1.0  0.29050  0.47550  0.11270  1.0000
  O   O20       1.0  0.70950  0.97550  0.38730  1.0000
  O   O21       1.0  0.10310  0.81370  0.34480  1.0000
  O   O22       1.0  0.89690  0.31370  0.15520  1.0000
  O   O23       1.0  0.89690  0.18630  0.65520  1.0000
  O   O24       1.0  0.10310  0.68630  0.84480  1.0000
  O   O25       1.0  0.31370  0.82480  0.60150  1.0000
  O   O26       1.0  0.68630  0.32480  0.89850  1.0000
  O   O27       1.0  0.68630  0.17520  0.39850  1.0000
  O   O28       1.0  0.31370  0.67520  0.10150  1.0000
  O   O29       1.0  0.06760  0.89910  0.46440  1.0000
  O   O30       1.0  0.93240  0.39910  0.03560  1.0000
  O   O31       1.0  0.93240  0.10090  0.53560  1.0000
  O   O32       1.0  0.06760  0.60090  0.96440  1.0000
  N   N1        1.0  0.71550  0.66510  0.54110  1.0000
  N   N2        1.0  0.28450  0.16510  0.95890  1.0000
  N   N3        1.0  0.28450  0.33490  0.45890  1.0000
  N   N4        1.0  0.71550  0.83490  0.04110  1.0000
  N   N5        1.0  0.74290  0.73760  0.50840  1.0000
  N   N6        1.0  0.25710  0.23760  0.99160  1.0000
  N   N7        1.0  0.25710  0.26240  0.49160  1.0000
  N   N8        1.0  0.74290  0.76240  0.00840  1.0000
  C   C1        1.0  0.79880  0.72250  0.43820  1.0000
  C   C2        1.0  0.20120  0.22250  0.06180  1.0000
  C   C3        1.0  0.20120  0.27750  0.56180  1.0000
  C   C4        1.0  0.79880  0.77750  0.93820  1.0000
  C   C5        1.0  0.61560  0.57160  0.84710  1.0000
  C   C6        1.0  0.38440  0.07160  0.65290  1.0000
  C   C7        1.0  0.38440  0.42840  0.15290  1.0000
  C   C8        1.0  0.61560  0.92840  0.34710  1.0000
  C   C9        1.0  0.56100  0.75070  0.56300  1.0000
  C   C10       1.0  0.43900  0.25070  0.93700  1.0000
  C   C11       1.0  0.43900  0.24930  0.43700  1.0000
  C   C12       1.0  0.56100  0.74930  0.06300  1.0000
  H   H1        1.0  0.55056  0.79129  0.50228  1.0000
  H   H2        1.0  0.44944  0.29129  0.99772  1.0000
  H   H3        1.0  0.44944  0.20871  0.49772  1.0000
  H   H4        1.0  0.55056  0.70871  0.00228  1.0000
  C   C13       1.0  0.94160  0.76840  0.37870  1.0000
  C   C14       1.0  0.05840  0.26840  0.12130  1.0000
  C   C15       1.0  0.05840  0.23160  0.62130  1.0000
  C   C16       1.0  0.94160  0.73160  0.87870  1.0000
  C   C17       1.0  0.75630  0.57120  0.18480  1.0000
  C   C18       1.0  0.24370  0.07120  0.31520  1.0000
  C   C19       1.0  0.24370  0.42880  0.81520  1.0000
  C   C20       1.0  0.75630  0.92880  0.68480  1.0000
  C   C21       1.0  0.64660  0.68150  0.59990  1.0000
  C   C22       1.0  0.35340  0.18150  0.90010  1.0000
  C   C23       1.0  0.35340  0.31850  0.40010  1.0000
  C   C24       1.0  0.64660  0.81850  0.09990  1.0000
  C   C25       1.0  0.59550  0.63330  0.74770  1.0000
  C   C26       1.0  0.40450  0.13330  0.75230  1.0000
  C   C27       1.0  0.40450  0.36670  0.25230  1.0000
  C   C28       1.0  0.59550  0.86670  0.24770  1.0000
  C   C29       1.0  0.88570  0.78090  0.44730  1.0000
  C   C30       1.0  0.11430  0.28090  0.05270  1.0000
  C   C31       1.0  0.11430  0.21910  0.55270  1.0000
  C   C32       1.0  0.88570  0.71910  0.94730  1.0000
  H   H5        1.0  0.90902  0.83070  0.50040  1.0000
  H   H6        1.0  0.09098  0.33070  0.99960  1.0000
  H   H7        1.0  0.09098  0.16930  0.49960  1.0000
  H   H8        1.0  0.90902  0.66930  0.00040  1.0000
  C   C33       1.0  0.75710  0.65320  0.35180  1.0000
  C   C34       1.0  0.24290  0.15320  0.14820  1.0000
  C   C35       1.0  0.24290  0.34680  0.64820  1.0000
  C   C36       1.0  0.75710  0.84680  0.85180  1.0000
  H   H9        1.0  0.69327  0.61420  0.34275  1.0000
  H   H10       1.0  0.30673  0.11420  0.15725  1.0000
  H   H11       1.0  0.30673  0.38580  0.65725  1.0000
  H   H12       1.0  0.69327  0.88580  0.84275  1.0000
  C   C37       1.0  0.49160  0.75850  0.61720  1.0000
  C   C38       1.0  0.50840  0.25850  0.88280  1.0000
  C   C39       1.0  0.50840  0.24150  0.38280  1.0000
  C   C40       1.0  0.49160  0.74150  0.11720  1.0000
  C   C41       1.0  0.80830  0.64190  0.28040  1.0000
  C   C42       1.0  0.19170  0.14190  0.21960  1.0000
  C   C43       1.0  0.19170  0.35810  0.71960  1.0000
  C   C44       1.0  0.80830  0.85810  0.78040  1.0000
  C   C45       1.0  0.66400  0.62270  0.69090  1.0000
  C   C46       1.0  0.33600  0.12270  0.80910  1.0000
  C   C47       1.0  0.33600  0.37730  0.30910  1.0000
  C   C48       1.0  0.66400  0.87730  0.19090  1.0000
  H   H13       1.0  0.72251  0.57542  0.71428  1.0000
  H   H14       1.0  0.27749  0.07542  0.78572  1.0000
  H   H15       1.0  0.27749  0.42458  0.28572  1.0000
  H   H16       1.0  0.72251  0.92458  0.21428  1.0000
  C   C49       1.0  0.50760  0.69990  0.70960  1.0000
  C   C50       1.0  0.49240  0.19990  0.79040  1.0000
  C   C51       1.0  0.49240  0.30010  0.29040  1.0000
  C   C52       1.0  0.50760  0.80010  0.20960  1.0000
  H   H17       1.0  0.45808  0.70641  0.74504  1.0000
  H   H18       1.0  0.54192  0.20641  0.75496  1.0000
  H   H19       1.0  0.54192  0.29359  0.25496  1.0000
  H   H20       1.0  0.45808  0.79359  0.24504  1.0000
  C   C53       1.0  0.04350  0.83110  0.39650  1.0000
  C   C54       1.0  0.95650  0.33110  0.10350  1.0000
  C   C55       1.0  0.95650  0.16890  0.60350  1.0000
  C   C56       1.0  0.04350  0.66890  0.89650  1.0000
  C   C57       1.0  0.39310  0.82700  0.57080  1.0000
  C   C58       1.0  0.60690  0.32700  0.92920  1.0000
  C   C59       1.0  0.60690  0.17300  0.42920  1.0000
  C   C60       1.0  0.39310  0.67300  0.07080  1.0000
  C   C61       1.0  0.90320  0.69960  0.29600  1.0000
  C   C62       1.0  0.09680  0.19960  0.20400  1.0000
  C   C63       1.0  0.09680  0.30040  0.70400  1.0000
  C   C64       1.0  0.90320  0.80040  0.79600  1.0000
  H   H21       1.0  0.94134  0.69138  0.24970  1.0000
  H   H22       1.0  0.05866  0.19138  0.25030  1.0000
  H   H23       1.0  0.05866  0.30862  0.75030  1.0000
  H   H24       1.0  0.94134  0.80862  0.74970  1.0000
