data_image0
_chemical_formula_structural       Mo8O48C24H8C16H8C16H8C8H8C8H8C8H8N16H8C16H8C8H8C8H8C24H8C40H8C16H8
_chemical_formula_sum              "Mo8 O48 C192 H104 N16"
_cell_length_a       24.2727
_cell_length_b       35.951
_cell_length_c       7.6427
_cell_angle_alpha    90
_cell_angle_beta     90
_cell_angle_gamma    90

_space_group_name_H-M_alt    "P 1"
_space_group_IT_number       1

loop_
  _space_group_symop_operation_xyz
  'x, y, z'

loop_
  _atom_site_type_symbol
  _atom_site_label
  _atom_site_symmetry_multiplicity
  _atom_site_fract_x
  _atom_site_fract_y
  _atom_site_fract_z
  _atom_site_occupancy
  Mo  Mo1       1.0  0.33908  0.71448  0.03829  1.0000
  Mo  Mo2       1.0  0.16092  0.28552  0.53829  1.0000
  Mo  Mo3       1.0  0.66092  0.21448  0.96171  1.0000
  Mo  Mo4       1.0  0.83908  0.78552  0.46171  1.0000
  Mo  Mo5       1.0  0.66092  0.28552  0.96171  1.0000
  Mo  Mo6       1.0  0.83908  0.71448  0.46171  1.0000
  Mo  Mo7       1.0  0.33908  0.78552  0.03829  1.0000
  Mo  Mo8       1.0  0.16092  0.21448  0.53829  1.0000
  O   O1        1.0  0.28440  0.75000  0.97320  1.0000
  O   O2        1.0  0.21560  0.25000  0.47320  1.0000
  O   O3        1.0  0.71560  0.25000  0.02680  1.0000
  O   O4        1.0  0.78440  0.75000  0.52680  1.0000
  O   O5        1.0  0.39720  0.75000  0.00700  1.0000
  O   O6        1.0  0.10280  0.25000  0.50700  1.0000
  O   O7        1.0  0.60280  0.25000  0.99300  1.0000
  O   O8        1.0  0.89720  0.75000  0.49300  1.0000
  O   O9        1.0  0.78440  0.67250  0.53940  1.0000
  O   O10       1.0  0.71560  0.32750  0.03940  1.0000
  O   O11       1.0  0.21560  0.17250  0.46060  1.0000
  O   O12       1.0  0.28440  0.82750  0.96060  1.0000
  O   O13       1.0  0.21560  0.32750  0.46060  1.0000
  O   O14       1.0  0.28440  0.67250  0.96060  1.0000
  O   O15       1.0  0.78440  0.82750  0.53940  1.0000
  O   O16       1.0  0.71560  0.17250  0.03940  1.0000
  O   O17       1.0  0.39870  0.67170  0.97490  1.0000
  O   O18       1.0  0.10130  0.32830  0.47490  1.0000
  O   O19       1.0  0.60130  0.17170  0.02510  1.0000
  O   O20       1.0  0.89870  0.82830  0.52510  1.0000
  O   O21       1.0  0.60130  0.32830  0.02510  1.0000
  O   O22       1.0  0.89870  0.67170  0.52510  1.0000
  O   O23       1.0  0.39870  0.82830  0.97490  1.0000
  O   O24       1.0  0.10130  0.17170  0.47490  1.0000
  O   O25       1.0  0.33650  0.70640  0.25210  1.0000
  O   O26       1.0  0.16350  0.29360  0.75210  1.0000
  O   O27       1.0  0.66350  0.20640  0.74790  1.0000
  O   O28       1.0  0.83650  0.79360  0.24790  1.0000
  O   O29       1.0  0.66350  0.29360  0.74790  1.0000
  O   O30       1.0  0.83650  0.70640  0.24790  1.0000
  O   O31       1.0  0.33650  0.79360  0.25210  1.0000
  O   O32       1.0  0.16350  0.20640  0.75210  1.0000
  O   O33       1.0  0.71400  0.68850  0.36610  1.0000
  O   O34       1.0  0.78600  0.31150  0.86610  1.0000
  O   O35       1.0  0.28600  0.18850  0.63390  1.0000
  O   O36       1.0  0.21400  0.81150  0.13390  1.0000
  O   O37       1.0  0.28600  0.31150  0.63390  1.0000
  O   O38       1.0  0.21400  0.68850  0.13390  1.0000
  O   O39       1.0  0.71400  0.81150  0.36610  1.0000
  O   O40       1.0  0.78600  0.18850  0.86610  1.0000
  O   O41       1.0  0.36030  0.70070  0.75500  1.0000
  O   O42       1.0  0.13970  0.29930  0.25500  1.0000
  O   O43       1.0  0.63970  0.20070  0.24500  1.0000
  O   O44       1.0  0.86030  0.79930  0.74500  1.0000
  O   O45       1.0  0.63970  0.29930  0.24500  1.0000
  O   O46       1.0  0.86030  0.70070  0.74500  1.0000
  O   O47       1.0  0.36030  0.79930  0.75500  1.0000
  O   O48       1.0  0.13970  0.20070  0.25500  1.0000
  C   C1        1.0  0.69950  0.63970  0.56630  1.0000
  C   C2        1.0  0.80050  0.36030  0.06630  1.0000
  C   C3        1.0  0.30050  0.13970  0.43370  1.0000
  C   C4        1.0  0.19950  0.86030  0.93370  1.0000
  C   C5        1.0  0.30050  0.36030  0.43370  1.0000
  C   C6        1.0  0.19950  0.63970  0.93370  1.0000
  C   C7        1.0  0.69950  0.86030  0.56630  1.0000
  C   C8        1.0  0.80050  0.13970  0.06630  1.0000
  C   C9        1.0  0.73700  0.66920  0.48200  1.0000
  C   C10       1.0  0.76300  0.33080  0.98200  1.0000
  C   C11       1.0  0.26300  0.16920  0.51800  1.0000
  C   C12       1.0  0.23700  0.83080  0.01800  1.0000
  C   C13       1.0  0.26300  0.33080  0.51800  1.0000
  C   C14       1.0  0.23700  0.66920  0.01800  1.0000
  C   C15       1.0  0.73700  0.83080  0.48200  1.0000
  C   C16       1.0  0.76300  0.16920  0.98200  1.0000
  C   C17       1.0  0.46300  0.59020  0.62490  1.0000
  C   C18       1.0  0.03700  0.40980  0.12490  1.0000
  C   C19       1.0  0.53700  0.09020  0.37510  1.0000
  C   C20       1.0  0.96300  0.90980  0.87510  1.0000
  C   C21       1.0  0.53700  0.40980  0.37510  1.0000
  C   C22       1.0  0.96300  0.59020  0.87510  1.0000
  C   C23       1.0  0.46300  0.90980  0.62490  1.0000
  C   C24       1.0  0.03700  0.09020  0.12490  1.0000
  H   H1        1.0  0.48260  0.56980  0.66570  1.0000
  H   H2        1.0  0.01740  0.43020  0.16570  1.0000
  H   H3        1.0  0.51740  0.06980  0.33430  1.0000
  H   H4        1.0  0.98260  0.93020  0.83430  1.0000
  H   H5        1.0  0.51740  0.43020  0.33430  1.0000
  H   H6        1.0  0.98260  0.56980  0.83430  1.0000
  H   H7        1.0  0.48260  0.93020  0.66570  1.0000
  H   H8        1.0  0.01740  0.06980  0.16570  1.0000
  C   C25       1.0  0.45270  0.59460  0.44750  1.0000
  C   C26       1.0  0.04730  0.40540  0.94750  1.0000
  C   C27       1.0  0.54730  0.09460  0.55250  1.0000
  C   C28       1.0  0.95270  0.90540  0.05250  1.0000
  C   C29       1.0  0.54730  0.40540  0.55250  1.0000
  C   C30       1.0  0.95270  0.59460  0.05250  1.0000
  C   C31       1.0  0.45270  0.90540  0.44750  1.0000
  C   C32       1.0  0.04730  0.09460  0.94750  1.0000
  C   C33       1.0  0.65020  0.63040  0.49100  1.0000
  C   C34       1.0  0.84980  0.36960  0.99100  1.0000
  C   C35       1.0  0.34980  0.13040  0.50900  1.0000
  C   C36       1.0  0.15020  0.86960  0.00900  1.0000
  C   C37       1.0  0.34980  0.36960  0.50900  1.0000
  C   C38       1.0  0.15020  0.63040  0.00900  1.0000
  C   C39       1.0  0.65020  0.86960  0.49100  1.0000
  C   C40       1.0  0.84980  0.13040  0.99100  1.0000
  H   H9        1.0  0.63970  0.64140  0.38660  1.0000
  H   H10       1.0  0.86030  0.35860  0.88660  1.0000
  H   H11       1.0  0.36030  0.14140  0.61340  1.0000
  H   H12       1.0  0.13970  0.85860  0.11340  1.0000
  H   H13       1.0  0.36030  0.35860  0.61340  1.0000
  H   H14       1.0  0.13970  0.64140  0.11340  1.0000
  H   H15       1.0  0.63970  0.85860  0.38660  1.0000
  H   H16       1.0  0.86030  0.14140  0.88660  1.0000
  C   C41       1.0  0.41520  0.64750  0.68310  1.0000
  C   C42       1.0  0.08480  0.35250  0.18310  1.0000
  C   C43       1.0  0.58480  0.14750  0.31690  1.0000
  C   C44       1.0  0.91520  0.85250  0.81690  1.0000
  C   C45       1.0  0.58480  0.35250  0.31690  1.0000
  C   C46       1.0  0.91520  0.64750  0.81690  1.0000
  C   C47       1.0  0.41520  0.85250  0.68310  1.0000
  C   C48       1.0  0.08480  0.14750  0.18310  1.0000
  C   C49       1.0  0.61620  0.60480  0.57000  1.0000
  C   C50       1.0  0.88380  0.39520  0.07000  1.0000
  C   C51       1.0  0.38380  0.10480  0.43000  1.0000
  C   C52       1.0  0.11620  0.89520  0.93000  1.0000
  C   C53       1.0  0.38380  0.39520  0.43000  1.0000
  C   C54       1.0  0.11620  0.60480  0.93000  1.0000
  C   C55       1.0  0.61620  0.89520  0.57000  1.0000
  C   C56       1.0  0.88380  0.10480  0.07000  1.0000
  H   H17       1.0  0.58320  0.59830  0.51650  1.0000
  H   H18       1.0  0.91680  0.40170  0.01650  1.0000
  H   H19       1.0  0.41680  0.09830  0.48350  1.0000
  H   H20       1.0  0.08320  0.90170  0.98350  1.0000
  H   H21       1.0  0.41680  0.40170  0.48350  1.0000
  H   H22       1.0  0.08320  0.59830  0.98350  1.0000
  H   H23       1.0  0.58320  0.90170  0.51650  1.0000
  H   H24       1.0  0.91680  0.09830  0.01650  1.0000
  C   C57       1.0  0.40660  0.65160  0.50660  1.0000
  C   C58       1.0  0.09340  0.34840  0.00660  1.0000
  C   C59       1.0  0.59340  0.15160  0.49340  1.0000
  C   C60       1.0  0.90660  0.84840  0.99340  1.0000
  C   C61       1.0  0.59340  0.34840  0.49340  1.0000
  C   C62       1.0  0.90660  0.65160  0.99340  1.0000
  C   C63       1.0  0.40660  0.84840  0.50660  1.0000
  C   C64       1.0  0.09340  0.15160  0.00660  1.0000
  H   H25       1.0  0.38690  0.67200  0.46550  1.0000
  H   H26       1.0  0.11310  0.32800  0.96550  1.0000
  H   H27       1.0  0.61310  0.17200  0.53450  1.0000
  H   H28       1.0  0.88690  0.82800  0.03450  1.0000
  H   H29       1.0  0.61310  0.32800  0.53450  1.0000
  H   H30       1.0  0.88690  0.67200  0.03450  1.0000
  H   H31       1.0  0.38690  0.82800  0.46550  1.0000
  H   H32       1.0  0.11310  0.17200  0.96550  1.0000
  C   C65       1.0  0.42650  0.62590  0.39010  1.0000
  C   C66       1.0  0.07350  0.37410  0.89010  1.0000
  C   C67       1.0  0.57350  0.12590  0.60990  1.0000
  C   C68       1.0  0.92650  0.87410  0.10990  1.0000
  C   C69       1.0  0.57350  0.37410  0.60990  1.0000
  C   C70       1.0  0.92650  0.62590  0.10990  1.0000
  C   C71       1.0  0.42650  0.87410  0.39010  1.0000
  C   C72       1.0  0.07350  0.12590  0.89010  1.0000
  H   H33       1.0  0.42210  0.62980  0.27060  1.0000
  H   H34       1.0  0.07790  0.37020  0.77060  1.0000
  H   H35       1.0  0.57790  0.12980  0.72940  1.0000
  H   H36       1.0  0.92210  0.87020  0.22940  1.0000
  H   H37       1.0  0.57790  0.37020  0.72940  1.0000
  H   H38       1.0  0.92210  0.62980  0.22940  1.0000
  H   H39       1.0  0.42210  0.87020  0.27060  1.0000
  H   H40       1.0  0.07790  0.12980  0.77060  1.0000
  C   C73       1.0  0.71610  0.62240  0.71200  1.0000
  C   C74       1.0  0.78390  0.37760  0.21200  1.0000
  C   C75       1.0  0.28390  0.12240  0.28800  1.0000
  C   C76       1.0  0.21610  0.87760  0.78800  1.0000
  C   C77       1.0  0.28390  0.37760  0.28800  1.0000
  C   C78       1.0  0.21610  0.62240  0.78800  1.0000
  C   C79       1.0  0.71610  0.87760  0.71200  1.0000
  C   C80       1.0  0.78390  0.12240  0.21200  1.0000
  H   H41       1.0  0.75130  0.62700  0.75490  1.0000
  H   H42       1.0  0.74870  0.37300  0.25490  1.0000
  H   H43       1.0  0.24870  0.12700  0.24510  1.0000
  H   H44       1.0  0.25130  0.87300  0.74510  1.0000
  H   H45       1.0  0.24870  0.37300  0.24510  1.0000
  H   H46       1.0  0.25130  0.62700  0.74510  1.0000
  H   H47       1.0  0.75130  0.87300  0.75490  1.0000
  H   H48       1.0  0.74870  0.12700  0.25490  1.0000
  N   N1        1.0  0.52600  0.55170  0.05660  1.0000
  N   N2        1.0  0.97400  0.44830  0.55660  1.0000
  N   N3        1.0  0.47400  0.05170  0.94340  1.0000
  N   N4        1.0  0.02600  0.94830  0.44340  1.0000
  N   N5        1.0  0.47400  0.44830  0.94340  1.0000
  N   N6        1.0  0.02600  0.55170  0.44340  1.0000
  N   N7        1.0  0.52600  0.94830  0.05660  1.0000
  N   N8        1.0  0.97400  0.05170  0.55660  1.0000
  N   N9        1.0  0.45110  0.50100  0.21910  1.0000
  N   N10       1.0  0.04890  0.49900  0.71910  1.0000
  N   N11       1.0  0.54890  0.00100  0.78090  1.0000
  N   N12       1.0  0.95110  0.99900  0.28090  1.0000
  N   N13       1.0  0.54890  0.49900  0.78090  1.0000
  N   N14       1.0  0.95110  0.50100  0.28090  1.0000
  N   N15       1.0  0.45110  0.99900  0.21910  1.0000
  N   N16       1.0  0.04890  0.00100  0.71910  1.0000
  H   H49       1.0  0.47340  0.49980  0.13180  1.0000
  H   H50       1.0  0.02660  0.50020  0.63180  1.0000
  H   H51       1.0  0.52660  0.99980  0.86820  1.0000
  H   H52       1.0  0.97340  0.00020  0.36820  1.0000
  H   H53       1.0  0.52660  0.50020  0.86820  1.0000
  H   H54       1.0  0.97340  0.49980  0.36820  1.0000
  H   H55       1.0  0.47340  0.00020  0.13180  1.0000
  H   H56       1.0  0.02660  0.99980  0.63180  1.0000
  C   C81       1.0  0.56380  0.57270  0.96250  1.0000
  C   C82       1.0  0.93620  0.42730  0.46250  1.0000
  C   C83       1.0  0.43620  0.07270  0.03750  1.0000
  C   C84       1.0  0.06380  0.92730  0.53750  1.0000
  C   C85       1.0  0.43620  0.42730  0.03750  1.0000
  C   C86       1.0  0.06380  0.57270  0.53750  1.0000
  C   C87       1.0  0.56380  0.92730  0.96250  1.0000
  C   C88       1.0  0.93620  0.07270  0.46250  1.0000
  C   C89       1.0  0.57130  0.60810  0.04600  1.0000
  C   C90       1.0  0.92870  0.39190  0.54600  1.0000
  C   C91       1.0  0.42870  0.10810  0.95400  1.0000
  C   C92       1.0  0.07130  0.89190  0.45400  1.0000
  C   C93       1.0  0.42870  0.39190  0.95400  1.0000
  C   C94       1.0  0.07130  0.60810  0.45400  1.0000
  C   C95       1.0  0.57130  0.89190  0.04600  1.0000
  C   C96       1.0  0.92870  0.10810  0.54600  1.0000
  H   H57       1.0  0.59550  0.62660  0.00900  1.0000
  H   H58       1.0  0.90450  0.37340  0.50900  1.0000
  H   H59       1.0  0.40450  0.12660  0.99100  1.0000
  H   H60       1.0  0.09550  0.87340  0.49100  1.0000
  H   H61       1.0  0.40450  0.37340  0.99100  1.0000
  H   H62       1.0  0.09550  0.62660  0.49100  1.0000
  H   H63       1.0  0.59550  0.87340  0.00900  1.0000
  H   H64       1.0  0.90450  0.12660  0.50900  1.0000
  C   C97       1.0  0.53810  0.61020  0.18400  1.0000
  C   C98       1.0  0.96190  0.38980  0.68400  1.0000
  C   C99       1.0  0.46190  0.11020  0.81600  1.0000
  C   C100      1.0  0.03810  0.88980  0.31600  1.0000
  C   C101      1.0  0.46190  0.38980  0.81600  1.0000
  C   C102      1.0  0.03810  0.61020  0.31600  1.0000
  C   C103      1.0  0.53810  0.88980  0.18400  1.0000
  C   C104      1.0  0.96190  0.11020  0.68400  1.0000
  H   H65       1.0  0.53420  0.63020  0.26010  1.0000
  H   H66       1.0  0.96580  0.36980  0.76010  1.0000
  H   H67       1.0  0.46580  0.13020  0.73990  1.0000
  H   H68       1.0  0.03420  0.86980  0.23990  1.0000
  H   H69       1.0  0.46580  0.36980  0.73990  1.0000
  H   H70       1.0  0.03420  0.63020  0.23990  1.0000
  H   H71       1.0  0.53420  0.86980  0.26010  1.0000
  H   H72       1.0  0.96580  0.13020  0.76010  1.0000
  C   C105      1.0  0.44360  0.61700  0.74030  1.0000
  C   C106      1.0  0.05640  0.38300  0.24030  1.0000
  C   C107      1.0  0.55640  0.11700  0.25970  1.0000
  C   C108      1.0  0.94360  0.88300  0.75970  1.0000
  C   C109      1.0  0.55640  0.38300  0.25970  1.0000
  C   C110      1.0  0.94360  0.61700  0.75970  1.0000
  C   C111      1.0  0.44360  0.88300  0.74030  1.0000
  C   C112      1.0  0.05640  0.11700  0.24030  1.0000
  H   H73       1.0  0.45010  0.61410  0.85950  1.0000
  H   H74       1.0  0.04990  0.38590  0.35950  1.0000
  H   H75       1.0  0.54990  0.11410  0.14050  1.0000
  H   H76       1.0  0.95010  0.88590  0.64050  1.0000
  H   H77       1.0  0.54990  0.38590  0.14050  1.0000
  H   H78       1.0  0.95010  0.61410  0.64050  1.0000
  H   H79       1.0  0.45010  0.88590  0.85950  1.0000
  H   H80       1.0  0.04990  0.11410  0.35950  1.0000
  C   C113      1.0  0.59180  0.56110  0.81240  1.0000
  C   C114      1.0  0.90820  0.43890  0.31240  1.0000
  C   C115      1.0  0.40820  0.06110  0.18760  1.0000
  C   C116      1.0  0.09180  0.93890  0.68760  1.0000
  C   C117      1.0  0.40820  0.43890  0.18760  1.0000
  C   C118      1.0  0.09180  0.56110  0.68760  1.0000
  C   C119      1.0  0.59180  0.93890  0.81240  1.0000
  C   C120      1.0  0.90820  0.06110  0.31240  1.0000
  C   C121      1.0  0.47010  0.56550  0.31960  1.0000
  C   C122      1.0  0.02990  0.43450  0.81960  1.0000
  C   C123      1.0  0.52990  0.06550  0.68040  1.0000
  C   C124      1.0  0.97010  0.93450  0.18040  1.0000
  C   C125      1.0  0.52990  0.43450  0.68040  1.0000
  C   C126      1.0  0.97010  0.56550  0.18040  1.0000
  C   C127      1.0  0.47010  0.93450  0.31960  1.0000
  C   C128      1.0  0.02990  0.06550  0.81960  1.0000
  C   C129      1.0  0.68120  0.59690  0.80300  1.0000
  C   C130      1.0  0.81880  0.40310  0.30300  1.0000
  C   C131      1.0  0.31880  0.09690  0.19700  1.0000
  C   C132      1.0  0.18120  0.90310  0.69700  1.0000
  C   C133      1.0  0.31880  0.40310  0.19700  1.0000
  C   C134      1.0  0.18120  0.59690  0.69700  1.0000
  C   C135      1.0  0.68120  0.90310  0.80300  1.0000
  C   C136      1.0  0.81880  0.09690  0.30300  1.0000
  H   H81       1.0  0.69190  0.58620  0.90790  1.0000
  H   H82       1.0  0.80810  0.41380  0.40790  1.0000
  H   H83       1.0  0.30810  0.08620  0.09210  1.0000
  H   H84       1.0  0.19190  0.91380  0.59210  1.0000
  H   H85       1.0  0.30810  0.41380  0.09210  1.0000
  H   H86       1.0  0.19190  0.58620  0.59210  1.0000
  H   H87       1.0  0.69190  0.91380  0.90790  1.0000
  H   H88       1.0  0.80810  0.08620  0.40790  1.0000
  C   C137      1.0  0.58530  0.52720  0.72930  1.0000
  C   C138      1.0  0.91470  0.47280  0.22930  1.0000
  C   C139      1.0  0.41470  0.02720  0.27070  1.0000
  C   C140      1.0  0.08530  0.97280  0.77070  1.0000
  C   C141      1.0  0.41470  0.47280  0.27070  1.0000
  C   C142      1.0  0.08530  0.52720  0.77070  1.0000
  C   C143      1.0  0.58530  0.97280  0.72930  1.0000
  C   C144      1.0  0.91470  0.02720  0.22930  1.0000
  C   C145      1.0  0.44540  0.53100  0.33140  1.0000
  C   C146      1.0  0.05460  0.46900  0.83140  1.0000
  C   C147      1.0  0.55460  0.03100  0.66860  1.0000
  C   C148      1.0  0.94540  0.96900  0.16860  1.0000
  C   C149      1.0  0.55460  0.46900  0.66860  1.0000
  C   C150      1.0  0.94540  0.53100  0.16860  1.0000
  C   C151      1.0  0.44540  0.96900  0.33140  1.0000
  C   C152      1.0  0.05460  0.03100  0.83140  1.0000
  C   C153      1.0  0.50880  0.57470  0.19230  1.0000
  C   C154      1.0  0.99120  0.42530  0.69230  1.0000
  C   C155      1.0  0.49120  0.07470  0.80770  1.0000
  C   C156      1.0  0.00880  0.92530  0.30770  1.0000
  C   C157      1.0  0.49120  0.42530  0.80770  1.0000
  C   C158      1.0  0.00880  0.57470  0.30770  1.0000
  C   C159      1.0  0.50880  0.92530  0.19230  1.0000
  C   C160      1.0  0.99120  0.07470  0.69230  1.0000
  C   C161      1.0  0.63020  0.58880  0.72620  1.0000
  C   C162      1.0  0.86980  0.41120  0.22620  1.0000
  C   C163      1.0  0.36980  0.08880  0.27380  1.0000
  C   C164      1.0  0.13020  0.91120  0.77380  1.0000
  C   C165      1.0  0.36980  0.41120  0.27380  1.0000
  C   C166      1.0  0.13020  0.58880  0.77380  1.0000
  C   C167      1.0  0.63020  0.91120  0.72620  1.0000
  C   C168      1.0  0.86980  0.08880  0.22620  1.0000
  C   C169      1.0  0.40250  0.52150  0.45200  1.0000
  C   C170      1.0  0.09750  0.47850  0.95200  1.0000
  C   C171      1.0  0.59750  0.02150  0.54800  1.0000
  C   C172      1.0  0.90250  0.97850  0.04800  1.0000
  C   C173      1.0  0.59750  0.47850  0.54800  1.0000
  C   C174      1.0  0.90250  0.52150  0.04800  1.0000
  C   C175      1.0  0.40250  0.97850  0.45200  1.0000
  C   C176      1.0  0.09750  0.02150  0.95200  1.0000
  H   H89       1.0  0.38870  0.53690  0.54010  1.0000
  H   H90       1.0  0.11130  0.46310  0.04010  1.0000
  H   H91       1.0  0.61130  0.03690  0.45990  1.0000
  H   H92       1.0  0.88870  0.96310  0.95990  1.0000
  H   H93       1.0  0.61130  0.46310  0.45990  1.0000
  H   H94       1.0  0.88870  0.53690  0.95990  1.0000
  H   H95       1.0  0.38870  0.96310  0.54010  1.0000
  H   H96       1.0  0.11130  0.03690  0.04010  1.0000
  C   C177      1.0  0.39080  0.67500  0.80700  1.0000
  C   C178      1.0  0.10920  0.32500  0.30700  1.0000
  C   C179      1.0  0.60920  0.17500  0.19300  1.0000
  C   C180      1.0  0.89080  0.82500  0.69300  1.0000
  C   C181      1.0  0.60920  0.32500  0.19300  1.0000
  C   C182      1.0  0.89080  0.67500  0.69300  1.0000
  C   C183      1.0  0.39080  0.82500  0.80700  1.0000
  C   C184      1.0  0.10920  0.17500  0.30700  1.0000
  C   C185      1.0  0.61420  0.51260  0.58110  1.0000
  C   C186      1.0  0.88580  0.48740  0.08110  1.0000
  C   C187      1.0  0.38580  0.01260  0.41890  1.0000
  C   C188      1.0  0.11420  0.98740  0.91890  1.0000
  C   C189      1.0  0.38580  0.48740  0.41890  1.0000
  C   C190      1.0  0.11420  0.51260  0.91890  1.0000
  C   C191      1.0  0.61420  0.98740  0.58110  1.0000
  C   C192      1.0  0.88580  0.01260  0.08110  1.0000
  H   H97       1.0  0.64080  0.52540  0.51760  1.0000
  H   H98       1.0  0.85920  0.47460  0.01760  1.0000
  H   H99       1.0  0.35920  0.02540  0.48240  1.0000
  H   H100      1.0  0.14080  0.97460  0.98240  1.0000
  H   H101      1.0  0.35920  0.47460  0.48240  1.0000
  H   H102      1.0  0.14080  0.52540  0.98240  1.0000
  H   H103      1.0  0.64080  0.97460  0.51760  1.0000
  H   H104      1.0  0.85920  0.02540  0.01760  1.0000
