data_image0
_chemical_formula_structural       C6H2C2H2C2H2C2H2C10H2C2H2C6H2C2H2C2H2C2H6C2H6N2O18Bi2
_chemical_formula_sum              "C38 H30 N2 O18 Bi2"
_cell_length_a       9.1381
_cell_length_b       10.0961
_cell_length_c       18.7143
_cell_angle_alpha    99.5467
_cell_angle_beta     101.961
_cell_angle_gamma    105.955

_space_group_name_H-M_alt    "P 1"
_space_group_IT_number       1

loop_
  _space_group_symop_operation_xyz
  'x, y, z'

loop_
  _atom_site_type_symbol
  _atom_site_label
  _atom_site_symmetry_multiplicity
  _atom_site_fract_x
  _atom_site_fract_y
  _atom_site_fract_z
  _atom_site_occupancy
  C   C1        1.0  0.57630  0.95910  0.80550  1.0000
  C   C2        1.0  0.42370  0.04090  0.19450  1.0000
  C   C3        1.0  0.44170  0.83240  0.80360  1.0000
  C   C4        1.0  0.55830  0.16760  0.19640  1.0000
  C   C5        1.0  0.34330  0.84170  0.85070  1.0000
  C   C6        1.0  0.65670  0.15830  0.14930  1.0000
  H   H1        1.0  0.36020  0.92740  0.88370  1.0000
  H   H2        1.0  0.63980  0.07260  0.11630  1.0000
  C   C7        1.0  0.41540  0.70380  0.75470  1.0000
  C   C8        1.0  0.58460  0.29620  0.24530  1.0000
  H   H3        1.0  0.47960  0.69720  0.72260  1.0000
  H   H4        1.0  0.52040  0.30280  0.27740  1.0000
  C   C9        1.0  0.29450  0.58530  0.75350  1.0000
  C   C10       1.0  0.70550  0.41470  0.24650  1.0000
  H   H5        1.0  0.27920  0.49900  0.72140  1.0000
  H   H6        1.0  0.72080  0.50100  0.27860  1.0000
  C   C11       1.0  0.22040  0.72310  0.84840  1.0000
  C   C12       1.0  0.77960  0.27690  0.15160  1.0000
  H   H7        1.0  0.15400  0.72990  0.87940  1.0000
  H   H8        1.0  0.84600  0.27010  0.12060  1.0000
  C   C13       1.0  0.19580  0.59450  0.80010  1.0000
  C   C14       1.0  0.80420  0.40550  0.19990  1.0000
  C   C15       1.0  0.06910  0.46140  0.79990  1.0000
  C   C16       1.0  0.93090  0.53860  0.20010  1.0000
  C   C17       1.0  0.68880  0.13080  0.65300  1.0000
  C   C18       1.0  0.31120  0.86920  0.34700  1.0000
  C   C19       1.0  0.59030  0.06460  0.57370  1.0000
  C   C20       1.0  0.40970  0.93540  0.42630  1.0000
  C   C21       1.0  0.44720  0.08760  0.54700  1.0000
  C   C22       1.0  0.55280  0.91240  0.45300  1.0000
  H   H9        1.0  0.41200  0.14600  0.57840  1.0000
  H   H10       1.0  0.58800  0.85400  0.42160  1.0000
  C   C23       1.0  0.64250  0.97650  0.52630  1.0000
  C   C24       1.0  0.35750  0.02350  0.47370  1.0000
  H   H11       1.0  0.73770  0.96090  0.54400  1.0000
  H   H12       1.0  0.26230  0.03910  0.45600  1.0000
  C   C25       1.0  0.67640  0.38620  0.90910  1.0000
  C   C26       1.0  0.32360  0.61380  0.09090  1.0000
  C   C27       1.0  0.58490  0.44710  0.95550  1.0000
  C   C28       1.0  0.41510  0.55290  0.04450  1.0000
  C   C29       1.0  0.43450  0.44980  0.92280  1.0000
  C   C30       1.0  0.56550  0.55020  0.07720  1.0000
  H   H13       1.0  0.39110  0.41640  0.87110  1.0000
  H   H14       1.0  0.60890  0.58360  0.12890  1.0000
  C   C31       1.0  0.65020  0.49810  0.03290  1.0000
  C   C32       1.0  0.34980  0.50190  0.96710  1.0000
  H   H15       1.0  0.75090  0.49690  0.05470  1.0000
  H   H16       1.0  0.24910  0.50310  0.94530  1.0000
  C   C33       1.0  0.04560  0.21910  0.98330  1.0000
  C   C34       1.0  0.95440  0.78090  0.01670  1.0000
  H   H17       1.0  0.99830  0.28260  0.00230  1.0000
  H   H18       1.0  0.00170  0.71740  0.99770  1.0000
  C   C35       1.0  0.24590  0.10540  0.00540  1.0000
  C   C36       1.0  0.75410  0.89460  0.99460  1.0000
  H   H19       1.0  0.32170  0.09970  0.04780  1.0000
  H   H20       1.0  0.67830  0.90030  0.95220  1.0000
  H   H21       1.0  0.17460  0.01210  0.98030  1.0000
  H   H22       1.0  0.82540  0.98790  0.01970  1.0000
  H   H23       1.0  0.29960  0.14530  0.97120  1.0000
  H   H24       1.0  0.70040  0.85470  0.02880  1.0000
  C   C37       1.0  0.20570  0.26320  0.11130  1.0000
  C   C38       1.0  0.79430  0.73680  0.88870  1.0000
  H   H25       1.0  0.28820  0.23240  0.13680  1.0000
  H   H26       1.0  0.71180  0.76760  0.86320  1.0000
  H   H27       1.0  0.24360  0.36420  0.11780  1.0000
  H   H28       1.0  0.75640  0.63580  0.88220  1.0000
  H   H29       1.0  0.11670  0.23800  0.13180  1.0000
  H   H30       1.0  0.88330  0.76200  0.86820  1.0000
  N   N1        1.0  0.15790  0.19430  0.03090  1.0000
  N   N2        1.0  0.84210  0.80570  0.96910  1.0000
  O   O1        1.0  0.58550  0.07860  0.84558  1.0000
  O   O2        1.0  0.41450  0.92140  0.15442  1.0000
  O   O3        1.0  0.67210  0.94530  0.76834  1.0000
  O   O4        1.0  0.32790  0.05470  0.23166  1.0000
  O   O5        1.0  0.94950  0.47510  0.82029  1.0000
  O   O6        1.0  0.05050  0.52490  0.17971  1.0000
  O   O7        1.0  0.09060  0.34560  0.78136  1.0000
  O   O8        1.0  0.90940  0.65440  0.21864  1.0000
  O   O9        1.0  0.62930  0.19660  0.69810  1.0000
  O   O10       1.0  0.37070  0.80340  0.30190  1.0000
  O   O11       1.0  0.82240  0.12060  0.67283  1.0000
  O   O12       1.0  0.17760  0.87940  0.32717  1.0000
  O   O13       1.0  0.62840  0.35870  0.83730  1.0000
  O   O14       1.0  0.37160  0.64130  0.16270  1.0000
  O   O15       1.0  0.79610  0.35930  0.94084  1.0000
  O   O16       1.0  0.20390  0.64070  0.05916  1.0000
  O   O17       1.0  0.99920  0.16360  0.91501  1.0000
  O   O18       1.0  0.00080  0.83640  0.08499  1.0000
  Bi  Bi1       1.0  0.79667  0.23307  0.81597  1.0000
  Bi  Bi2       1.0  0.20333  0.76693  0.18403  1.0000
