data_image0
_chemical_formula_structural       C6H2C2H2C2H2C2H2C10H2C2H2C2H2C2H2C10H2C2H2C2H2C2H2C10H2C2H2C2H2C2H2C2H2N4H2O28Bi4
_chemical_formula_sum              "C62 H36 N4 O28 Bi4"
_cell_length_a       13.6855
_cell_length_b       13.753
_cell_length_c       15.3046
_cell_angle_alpha    73.035
_cell_angle_beta     75.047
_cell_angle_gamma    82.048

_space_group_name_H-M_alt    "P 1"
_space_group_IT_number       1

loop_
  _space_group_symop_operation_xyz
  'x, y, z'

loop_
  _atom_site_type_symbol
  _atom_site_label
  _atom_site_symmetry_multiplicity
  _atom_site_fract_x
  _atom_site_fract_y
  _atom_site_fract_z
  _atom_site_occupancy
  C   C1        1.0  0.03450  0.78230  0.36510  1.0000
  C   C2        1.0  0.96550  0.21770  0.63490  1.0000
  C   C3        1.0  0.97210  0.84340  0.42800  1.0000
  C   C4        1.0  0.02790  0.15660  0.57200  1.0000
  C   C5        1.0  0.89230  0.91130  0.39940  1.0000
  C   C6        1.0  0.10770  0.08870  0.60060  1.0000
  H   H1        1.0  0.87670  0.91520  0.34280  1.0000
  H   H2        1.0  0.12330  0.08480  0.65720  1.0000
  C   C7        1.0  0.83780  0.97170  0.45450  1.0000
  C   C8        1.0  0.16220  0.02830  0.54550  1.0000
  H   H3        1.0  0.78610  0.01720  0.43450  1.0000
  H   H4        1.0  0.21390  0.98280  0.56550  1.0000
  C   C9        1.0  0.99140  0.83640  0.51540  1.0000
  C   C10       1.0  0.00860  0.16360  0.48460  1.0000
  H   H5        1.0  0.04270  0.79050  0.53600  1.0000
  H   H6        1.0  0.95730  0.20950  0.46400  1.0000
  C   C11       1.0  0.93580  0.89630  0.57060  1.0000
  C   C12       1.0  0.06420  0.10370  0.42940  1.0000
  H   H7        1.0  0.94930  0.89080  0.62850  1.0000
  H   H8        1.0  0.05070  0.10920  0.37150  1.0000
  C   C13       1.0  0.85860  0.96590  0.54020  1.0000
  C   C14       1.0  0.14140  0.03410  0.45980  1.0000
  C   C15       1.0  0.80420  0.03710  0.59680  1.0000
  C   C16       1.0  0.19580  0.96290  0.40320  1.0000
  C   C17       1.0  0.31030  0.54340  0.32250  1.0000
  C   C18       1.0  0.68970  0.45660  0.67750  1.0000
  C   C19       1.0  0.38990  0.47850  0.36920  1.0000
  C   C20       1.0  0.61010  0.52150  0.63080  1.0000
  C   C21       1.0  0.48500  0.51270  0.35220  1.0000
  C   C22       1.0  0.51500  0.48730  0.64780  1.0000
  H   H9        1.0  0.50190  0.57370  0.30730  1.0000
  H   H10       1.0  0.49810  0.42630  0.69270  1.0000
  C   C23       1.0  0.55490  0.45720  0.40110  1.0000
  C   C24       1.0  0.44510  0.54280  0.59890  1.0000
  H   H11       1.0  0.61920  0.48020  0.38850  1.0000
  H   H12       1.0  0.38080  0.51980  0.61150  1.0000
  C   C25       1.0  0.36490  0.38520  0.43280  1.0000
  C   C26       1.0  0.63510  0.61480  0.56720  1.0000
  H   H13       1.0  0.30260  0.35980  0.44110  1.0000
  H   H14       1.0  0.69740  0.64020  0.55890  1.0000
  C   C27       1.0  0.43500  0.33020  0.48370  1.0000
  C   C28       1.0  0.56500  0.66980  0.51630  1.0000
  H   H15       1.0  0.41870  0.26860  0.52780  1.0000
  H   H16       1.0  0.58130  0.73140  0.47220  1.0000
  C   C29       1.0  0.52950  0.36680  0.46910  1.0000
  C   C30       1.0  0.47050  0.63320  0.53090  1.0000
  C   C31       1.0  0.60110  0.31180  0.53070  1.0000
  C   C32       1.0  0.39890  0.68820  0.46930  1.0000
  C   C33       1.0  0.53410  0.09250  0.81000  1.0000
  C   C34       1.0  0.46590  0.90750  0.19000  1.0000
  C   C35       1.0  0.45870  0.02470  0.88080  1.0000
  C   C36       1.0  0.54130  0.97530  0.11920  1.0000
  C   C37       1.0  0.39770  0.05640  0.95600  1.0000
  C   C38       1.0  0.60230  0.94360  0.04400  1.0000
  H   H17       1.0  0.39930  0.12240  0.95960  1.0000
  H   H18       1.0  0.60070  0.87760  0.04040  1.0000
  C   C39       1.0  0.33400  0.98950  0.02600  1.0000
  C   C40       1.0  0.66600  0.01050  0.97400  1.0000
  H   H19       1.0  0.29420  0.01030  0.07740  1.0000
  H   H20       1.0  0.70580  0.98970  0.92260  1.0000
  C   C41       1.0  0.45350  0.92840  0.87360  1.0000
  C   C42       1.0  0.54650  0.07160  0.12640  1.0000
  H   H21       1.0  0.49400  0.90790  0.82230  1.0000
  H   H22       1.0  0.50600  0.09210  0.17770  1.0000
  C   C43       1.0  0.38800  0.86110  0.94270  1.0000
  C   C44       1.0  0.61200  0.13890  0.05730  1.0000
  H   H23       1.0  0.38370  0.79640  0.93700  1.0000
  H   H24       1.0  0.61630  0.20360  0.06300  1.0000
  C   C45       1.0  0.32950  0.89170  0.01990  1.0000
  C   C46       1.0  0.67050  0.10830  0.98010  1.0000
  C   C47       1.0  0.26310  0.81660  0.09720  1.0000
  C   C48       1.0  0.73690  0.18340  0.90280  1.0000
  C   C49       1.0  0.07360  0.58340  0.12070  1.0000
  C   C50       1.0  0.92640  0.41660  0.87930  1.0000
  C   C51       1.0  0.03700  0.54030  0.05820  1.0000
  C   C52       1.0  0.96300  0.45970  0.94180  1.0000
  C   C53       1.0  0.08620  0.45340  0.03280  1.0000
  C   C54       1.0  0.91380  0.54660  0.96720  1.0000
  H   H25       1.0  0.14320  0.42230  0.05480  1.0000
  H   H26       1.0  0.85680  0.57770  0.94520  1.0000
  C   C55       1.0  0.95010  0.58670  0.02550  1.0000
  C   C56       1.0  0.04990  0.41330  0.97450  1.0000
  H   H27       1.0  0.91690  0.64430  0.04290  1.0000
  H   H28       1.0  0.08310  0.35570  0.95710  1.0000
  C   C57       1.0  0.00580  0.46450  0.40560  1.0000
  C   C58       1.0  0.99420  0.53550  0.59440  1.0000
  H   H29       1.0  0.06490  0.42540  0.41600  1.0000
  H   H30       1.0  0.93510  0.57460  0.58400  1.0000
  C   C59       1.0  0.90020  0.58450  0.35160  1.0000
  C   C60       1.0  0.09980  0.41550  0.64840  1.0000
  H   H31       1.0  0.87420  0.64510  0.31650  1.0000
  H   H32       1.0  0.12580  0.35490  0.68350  1.0000
  C   C61       1.0  0.84390  0.51140  0.41660  1.0000
  C   C62       1.0  0.15610  0.48860  0.58340  1.0000
  H   H33       1.0  0.77350  0.51240  0.43470  1.0000
  H   H34       1.0  0.22650  0.48760  0.56530  1.0000
  N   N1        1.0  0.00320  0.55560  0.34510  1.0000
  N   N2        1.0  0.99680  0.44440  0.65490  1.0000
  N   N3        1.0  0.91140  0.43580  0.45010  1.0000
  N   N4        1.0  0.08860  0.56420  0.54990  1.0000
  H   H35       1.0  0.89630  0.37970  0.49230  1.0000
  H   H36       1.0  0.10370  0.62030  0.50770  1.0000
  O   O1        1.0  0.00930  0.78440  0.29140  1.0000
  O   O2        1.0  0.99070  0.21560  0.70860  1.0000
  O   O3        1.0  0.11300  0.72900  0.38880  1.0000
  O   O4        1.0  0.88700  0.27100  0.61120  1.0000
  O   O5        1.0  0.74070  0.10520  0.56110  1.0000
  O   O6        1.0  0.25930  0.89480  0.43890  1.0000
  O   O7        1.0  0.32960  0.63220  0.27250  1.0000
  O   O8        1.0  0.67040  0.36780  0.72750  1.0000
  O   O9        1.0  0.22670  0.50670  0.33450  1.0000
  O   O10       1.0  0.77330  0.49330  0.66550  1.0000
  O   O11       1.0  0.68850  0.33750  0.51660  1.0000
  O   O12       1.0  0.31150  0.66250  0.48340  1.0000
  O   O13       1.0  0.56350  0.23970  0.60280  1.0000
  O   O14       1.0  0.43650  0.76030  0.39720  1.0000
  O   O15       1.0  0.53680  0.18230  0.81020  1.0000
  O   O16       1.0  0.46320  0.81770  0.18980  1.0000
  O   O17       1.0  0.59870  0.05520  0.74880  1.0000
  O   O18       1.0  0.40130  0.94480  0.25120  1.0000
  O   O19       1.0  0.22820  0.83760  0.17490  1.0000
  O   O20       1.0  0.77180  0.16240  0.82510  1.0000
  O   O21       1.0  0.24490  0.73680  0.08340  1.0000
  O   O22       1.0  0.75510  0.26320  0.91660  1.0000
  O   O23       1.0  0.14760  0.53510  0.15540  1.0000
  O   O24       1.0  0.85240  0.46490  0.84460  1.0000
  O   O25       1.0  0.03260  0.66440  0.13980  1.0000
  O   O26       1.0  0.96740  0.33560  0.86020  1.0000
  O   O27       1.0  0.82180  0.03260  0.67410  1.0000
  O   O28       1.0  0.17820  0.96740  0.32590  1.0000
  Bi  Bi1       1.0  0.14235  0.65517  0.24178  1.0000
  Bi  Bi2       1.0  0.85765  0.34483  0.75822  1.0000
  Bi  Bi3       1.0  0.30676  0.80978  0.32447  1.0000
  Bi  Bi4       1.0  0.69324  0.19022  0.67553  1.0000
