data_image0
_chemical_formula_structural       Zn4P4O20C4H8C4
_chemical_formula_sum              "Zn4 P4 O20 C8 H8"
_cell_length_a       9.5324
_cell_length_b       12.5898
_cell_length_c       5.192
_cell_angle_alpha    90
_cell_angle_beta     90
_cell_angle_gamma    90

_space_group_name_H-M_alt    "P 1"
_space_group_IT_number       1

loop_
  _space_group_symop_operation_xyz
  'x, y, z'

loop_
  _atom_site_type_symbol
  _atom_site_label
  _atom_site_symmetry_multiplicity
  _atom_site_fract_x
  _atom_site_fract_y
  _atom_site_fract_z
  _atom_site_occupancy
  Zn  Zn1       1.0  0.10780  0.38459  0.81201  1.0000
  Zn  Zn2       1.0  0.89220  0.61541  0.31201  1.0000
  Zn  Zn3       1.0  0.60780  0.11541  0.81201  1.0000
  Zn  Zn4       1.0  0.39220  0.88459  0.31201  1.0000
  P   P1        1.0  0.80318  0.49552  0.81330  1.0000
  P   P2        1.0  0.19682  0.50448  0.31330  1.0000
  P   P3        1.0  0.30318  0.00448  0.81330  1.0000
  P   P4        1.0  0.69682  0.99552  0.31330  1.0000
  O   O1        1.0  0.90840  0.40830  0.87160  1.0000
  O   O2        1.0  0.09160  0.59170  0.37160  1.0000
  O   O3        1.0  0.40840  0.09170  0.87160  1.0000
  O   O4        1.0  0.59160  0.90830  0.37160  1.0000
  O   O5        1.0  0.83420  0.59800  0.95490  1.0000
  O   O6        1.0  0.16580  0.40200  0.45490  1.0000
  O   O7        1.0  0.33420  0.90200  0.95490  1.0000
  O   O8        1.0  0.66580  0.09800  0.45490  1.0000
  O   O9        1.0  0.79030  0.51480  0.52560  1.0000
  O   O10       1.0  0.20970  0.48520  0.02560  1.0000
  O   O11       1.0  0.29030  0.98520  0.52560  1.0000
  O   O12       1.0  0.70970  0.01480  0.02560  1.0000
  O   O13       1.0  0.63660  0.25860  0.94490  1.0000
  O   O14       1.0  0.36340  0.74140  0.44490  1.0000
  O   O15       1.0  0.13660  0.24140  0.94490  1.0000
  O   O16       1.0  0.86340  0.75860  0.44490  1.0000
  O   O17       1.0  0.55310  0.33300  0.59440  1.0000
  O   O18       1.0  0.44690  0.66700  0.09440  1.0000
  O   O19       1.0  0.05310  0.16700  0.59440  1.0000
  O   O20       1.0  0.94690  0.83300  0.09440  1.0000
  C   C1        1.0  0.63760  0.44580  0.92690  1.0000
  C   C2        1.0  0.36240  0.55420  0.42690  1.0000
  C   C3        1.0  0.13760  0.05420  0.92690  1.0000
  C   C4        1.0  0.86240  0.94580  0.42690  1.0000
  H   H1        1.0  0.64090  0.43890  0.11290  1.0000
  H   H2        1.0  0.35910  0.56110  0.61290  1.0000
  H   H3        1.0  0.14090  0.06110  0.11290  1.0000
  H   H4        1.0  0.85910  0.93890  0.61290  1.0000
  H   H5        1.0  0.56430  0.49640  0.88470  1.0000
  H   H6        1.0  0.43570  0.50360  0.38470  1.0000
  H   H7        1.0  0.06430  0.00360  0.88470  1.0000
  H   H8        1.0  0.93570  0.99640  0.38470  1.0000
  C   C5        1.0  0.60210  0.33920  0.80910  1.0000
  C   C6        1.0  0.39790  0.66080  0.30910  1.0000
  C   C7        1.0  0.10210  0.16080  0.80910  1.0000
  C   C8        1.0  0.89790  0.83920  0.30910  1.0000
