data_image0
_chemical_formula_structural       AlCu2Mo6C2H2C2H2C2H2C4H2C2H2C4H2C2H2C2H2C6N4O2H2O2H2O2H2O22
_chemical_formula_sum              "Al1 Cu2 Mo6 C26 H22 N4 O28"
_cell_length_a       11.4599
_cell_length_b       14.0932
_cell_length_c       17.1497
_cell_angle_alpha    76.797
_cell_angle_beta     72.168
_cell_angle_gamma    80.1

_space_group_name_H-M_alt    "P 1"
_space_group_IT_number       1

loop_
  _space_group_symop_operation_xyz
  'x, y, z'

loop_
  _atom_site_type_symbol
  _atom_site_label
  _atom_site_symmetry_multiplicity
  _atom_site_fract_x
  _atom_site_fract_y
  _atom_site_fract_z
  _atom_site_occupancy
  Al  Al1       1.0  0.50000  0.00000  0.00000  1.0000
  Cu  Cu1       1.0  0.96945  0.18927  0.96742  1.0000
  Cu  Cu2       1.0  0.03055  0.81073  0.03258  1.0000
  Mo  Mo1       1.0  0.47461  0.24427  0.95200  1.0000
  Mo  Mo2       1.0  0.52539  0.75573  0.04800  1.0000
  Mo  Mo3       1.0  0.76403  0.86948  0.92211  1.0000
  Mo  Mo4       1.0  0.23597  0.13052  0.07789  1.0000
  Mo  Mo5       1.0  0.74085  0.11145  0.87297  1.0000
  Mo  Mo6       1.0  0.25915  0.88855  0.12703  1.0000
  C   C1        1.0  0.14150  0.30150  0.81680  1.0000
  C   C2        1.0  0.85850  0.69850  0.18320  1.0000
  H   H1        1.0  0.18240  0.24210  0.80290  1.0000
  H   H2        1.0  0.81760  0.75790  0.19710  1.0000
  C   C3        1.0  0.18490  0.38680  0.76790  1.0000
  C   C4        1.0  0.81510  0.61320  0.23210  1.0000
  H   H3        1.0  0.25250  0.38460  0.72120  1.0000
  H   H4        1.0  0.74750  0.61540  0.27880  1.0000
  C   C5        1.0  0.12840  0.47520  0.78800  1.0000
  C   C6        1.0  0.87160  0.52480  0.21200  1.0000
  H   H5        1.0  0.15790  0.53300  0.75520  1.0000
  H   H6        1.0  0.84210  0.46700  0.24480  1.0000
  C   C7        1.0  0.02610  0.47890  0.85790  1.0000
  C   C8        1.0  0.97390  0.52110  0.14210  1.0000
  C   C9        1.0  0.95710  0.56780  0.88590  1.0000
  C   C10       1.0  0.04290  0.43220  0.11410  1.0000
  H   H7        1.0  0.97940  0.62860  0.85500  1.0000
  H   H8        1.0  0.02060  0.37140  0.14500  1.0000
  C   C11       1.0  0.86290  0.56370  0.95480  1.0000
  C   C12       1.0  0.13710  0.43630  0.04520  1.0000
  H   H9        1.0  0.82180  0.62170  0.97160  1.0000
  H   H10       1.0  0.17820  0.37830  0.02840  1.0000
  C   C13       1.0  0.82340  0.47190  0.00380  1.0000
  C   C14       1.0  0.17660  0.52810  0.99620  1.0000
  C   C15       1.0  0.72460  0.46100  0.07790  1.0000
  C   C16       1.0  0.27540  0.53900  0.92210  1.0000
  H   H11       1.0  0.67820  0.51590  0.09770  1.0000
  H   H12       1.0  0.32180  0.48410  0.90230  1.0000
  C   C17       1.0  0.69780  0.36810  0.12030  1.0000
  C   C18       1.0  0.30220  0.63190  0.87970  1.0000
  H   H13       1.0  0.63140  0.36070  0.16790  1.0000
  H   H14       1.0  0.36860  0.63930  0.83210  1.0000
  C   C19       1.0  0.76920  0.28480  0.09280  1.0000
  C   C20       1.0  0.23080  0.71520  0.90720  1.0000
  H   H15       1.0  0.75280  0.22280  0.12370  1.0000
  H   H16       1.0  0.24720  0.77720  0.87630  1.0000
  C   C21       1.0  0.88720  0.38390  0.97760  1.0000
  C   C22       1.0  0.11280  0.61610  0.02240  1.0000
  C   C23       1.0  0.98680  0.38840  0.90390  1.0000
  C   C24       1.0  0.01320  0.61160  0.09610  1.0000
  C   C25       1.0  0.04670  0.00020  0.95830  1.0000
  C   C26       1.0  0.95330  0.99980  0.04170  1.0000
  N   N1        1.0  0.04250  0.30010  0.88380  1.0000
  N   N2        1.0  0.95750  0.69990  0.11620  1.0000
  N   N3        1.0  0.86030  0.29430  0.02280  1.0000
  N   N4        1.0  0.13970  0.70570  0.97720  1.0000
  O   O1        1.0  0.59010  0.10160  0.00040  1.0000
  O   O2        1.0  0.40990  0.89840  0.99960  1.0000
  H   H17       1.0  0.59170  0.11770  0.04480  1.0000
  H   H18       1.0  0.40830  0.88230  0.95520  1.0000
  O   O3        1.0  0.61100  0.99440  0.89410  1.0000
  O   O4        1.0  0.38900  0.00560  0.10590  1.0000
  H   H19       1.0  0.59600  0.99650  0.83780  1.0000
  H   H20       1.0  0.40400  0.00350  0.16220  1.0000
  O   O5        1.0  0.60950  0.89720  0.03980  1.0000
  O   O6        1.0  0.39050  0.10280  0.96020  1.0000
  H   H21       1.0  0.63290  0.93440  0.06950  1.0000
  H   H22       1.0  0.36710  0.06560  0.93050  1.0000
  O   O7        1.0  0.59730  0.19890  0.85730  1.0000
  O   O8        1.0  0.40270  0.80110  0.14270  1.0000
  O   O9        1.0  0.80930  0.99230  0.92980  1.0000
  O   O10       1.0  0.19070  0.00770  0.07020  1.0000
  O   O11       1.0  0.36020  0.21270  0.06070  1.0000
  O   O12       1.0  0.63980  0.78730  0.93930  1.0000
  O   O13       1.0  0.82000  0.18770  0.89600  1.0000
  O   O14       1.0  0.18000  0.81230  0.10400  1.0000
  O   O15       1.0  0.80880  0.10370  0.77160  1.0000
  O   O16       1.0  0.19120  0.89630  0.22840  1.0000
  O   O17       1.0  0.85970  0.79630  0.97450  1.0000
  O   O18       1.0  0.14030  0.20370  0.02550  1.0000
  O   O19       1.0  0.83450  0.86850  0.81780  1.0000
  O   O20       1.0  0.16550  0.13150  0.18220  1.0000
  O   O21       1.0  0.38110  0.31650  0.89730  1.0000
  O   O22       1.0  0.61890  0.68350  0.10270  1.0000
  O   O23       1.0  0.55230  0.32210  0.97500  1.0000
  O   O24       1.0  0.44770  0.67790  0.02500  1.0000
  O   O25       1.0  0.07150  0.08050  0.91350  1.0000
  O   O26       1.0  0.92850  0.91950  0.08650  1.0000
  O   O27       1.0  0.09710  0.91770  0.94010  1.0000
  O   O28       1.0  0.90290  0.08230  0.05990  1.0000
