data_image0
_chemical_formula_structural       C4H4C16Cu16I16N16
_chemical_formula_sum              "C20 H4 Cu16 I16 N16"
_cell_length_a       11.3646
_cell_length_b       14.8491
_cell_length_c       14.7153
_cell_angle_alpha    90
_cell_angle_beta     98.85
_cell_angle_gamma    90

_space_group_name_H-M_alt    "P 1"
_space_group_IT_number       1

loop_
  _space_group_symop_operation_xyz
  'x, y, z'

loop_
  _atom_site_type_symbol
  _atom_site_label
  _atom_site_symmetry_multiplicity
  _atom_site_fract_x
  _atom_site_fract_y
  _atom_site_fract_z
  _atom_site_occupancy
  C   C1        1.0  0.76130  0.74770  0.69710  1.0000
  C   C2        1.0  0.73870  0.24770  0.80290  1.0000
  C   C3        1.0  0.23870  0.25230  0.30290  1.0000
  C   C4        1.0  0.26130  0.75230  0.19710  1.0000
  H   H1        1.0  0.75440  0.74140  0.75890  1.0000
  H   H2        1.0  0.74560  0.24140  0.74110  1.0000
  H   H3        1.0  0.24560  0.25860  0.24110  1.0000
  H   H4        1.0  0.25440  0.75860  0.25890  1.0000
  C   C5        1.0  0.71840  0.86240  0.48730  1.0000
  C   C6        1.0  0.78160  0.36240  0.01270  1.0000
  C   C7        1.0  0.28160  0.13760  0.51270  1.0000
  C   C8        1.0  0.21840  0.63760  0.98730  1.0000
  C   C9        1.0  0.74850  0.80350  0.56260  1.0000
  C   C10       1.0  0.75150  0.30350  0.93740  1.0000
  C   C11       1.0  0.25150  0.19650  0.43740  1.0000
  C   C12       1.0  0.24850  0.69650  0.06260  1.0000
  C   C13       1.0  0.85000  0.67500  0.49240  1.0000
  C   C14       1.0  0.65000  0.17500  0.00760  1.0000
  C   C15       1.0  0.15000  0.32500  0.50760  1.0000
  C   C16       1.0  0.35000  0.82500  0.99240  1.0000
  C   C17       1.0  0.80690  0.72090  0.56570  1.0000
  C   C18       1.0  0.69310  0.22090  0.93430  1.0000
  C   C19       1.0  0.19310  0.27910  0.43430  1.0000
  C   C20       1.0  0.30690  0.77910  0.06570  1.0000
  Cu  Cu1       1.0  0.61820  0.91612  0.69700  1.0000
  Cu  Cu2       1.0  0.88180  0.41612  0.80300  1.0000
  Cu  Cu3       1.0  0.38180  0.08388  0.30300  1.0000
  Cu  Cu4       1.0  0.11820  0.58388  0.19700  1.0000
  Cu  Cu5       1.0  0.41722  0.02571  0.67300  1.0000
  Cu  Cu6       1.0  0.08278  0.52571  0.82700  1.0000
  Cu  Cu7       1.0  0.58278  0.97429  0.32700  1.0000
  Cu  Cu8       1.0  0.91722  0.47429  0.17300  1.0000
  Cu  Cu9       1.0  0.60821  0.07051  0.79602  1.0000
  Cu  Cu10      1.0  0.89179  0.57051  0.70398  1.0000
  Cu  Cu11      1.0  0.39179  0.92949  0.20398  1.0000
  Cu  Cu12      1.0  0.10821  0.42949  0.29602  1.0000
  Cu  Cu13      1.0  0.45932  0.92570  0.83694  1.0000
  Cu  Cu14      1.0  0.04068  0.42570  0.66306  1.0000
  Cu  Cu15      1.0  0.54068  0.07430  0.16306  1.0000
  Cu  Cu16      1.0  0.95932  0.57430  0.33694  1.0000
  I   I1        1.0  0.62746  0.07354  0.61735  1.0000
  I   I2        1.0  0.87254  0.57354  0.88265  1.0000
  I   I3        1.0  0.37254  0.92646  0.38265  1.0000
  I   I4        1.0  0.12746  0.42646  0.11735  1.0000
  I   I5        1.0  0.69505  0.92192  0.88243  1.0000
  I   I6        1.0  0.80495  0.42192  0.61757  1.0000
  I   I7        1.0  0.30495  0.07808  0.11757  1.0000
  I   I8        1.0  0.19505  0.57808  0.38243  1.0000
  I   I9        1.0  0.37969  0.09533  0.83426  1.0000
  I   I10       1.0  0.12031  0.59533  0.66574  1.0000
  I   I11       1.0  0.62031  0.90467  0.16574  1.0000
  I   I12       1.0  0.87969  0.40467  0.33426  1.0000
  I   I13       1.0  0.38967  0.84789  0.67332  1.0000
  I   I14       1.0  0.11033  0.34789  0.82668  1.0000
  I   I15       1.0  0.61033  0.15211  0.32668  1.0000
  I   I16       1.0  0.88967  0.65211  0.17332  1.0000
  N   N1        1.0  0.69140  0.90890  0.42510  1.0000
  N   N2        1.0  0.80860  0.40890  0.07490  1.0000
  N   N3        1.0  0.30860  0.09110  0.57490  1.0000
  N   N4        1.0  0.19140  0.59110  0.92510  1.0000
  N   N5        1.0  0.88520  0.64040  0.43190  1.0000
  N   N6        1.0  0.61480  0.14040  0.06810  1.0000
  N   N7        1.0  0.11480  0.35960  0.56810  1.0000
  N   N8        1.0  0.38520  0.85960  0.93190  1.0000
  N   N9        1.0  0.71900  0.81930  0.64830  1.0000
  N   N10       1.0  0.78100  0.31930  0.85170  1.0000
  N   N11       1.0  0.28100  0.18070  0.35170  1.0000
  N   N12       1.0  0.21900  0.68070  0.14830  1.0000
  N   N13       1.0  0.81400  0.68560  0.65190  1.0000
  N   N14       1.0  0.68600  0.18560  0.84810  1.0000
  N   N15       1.0  0.18600  0.31440  0.34810  1.0000
  N   N16       1.0  0.31400  0.81440  0.15190  1.0000
