data_image0
_chemical_formula_structural       C4H4C12H4Cu32I32N16C8N8C16N8
_chemical_formula_sum              "C40 H8 Cu32 I32 N32"
_cell_length_a       17.84
_cell_length_b       31
_cell_length_c       8.4707
_cell_angle_alpha    90
_cell_angle_beta     90
_cell_angle_gamma    90

_space_group_name_H-M_alt    "P 1"
_space_group_IT_number       1

loop_
  _space_group_symop_operation_xyz
  'x, y, z'

loop_
  _atom_site_type_symbol
  _atom_site_label
  _atom_site_symmetry_multiplicity
  _atom_site_fract_x
  _atom_site_fract_y
  _atom_site_fract_z
  _atom_site_occupancy
  C   C1        1.0  0.47800  0.75000  0.46570  1.0000
  C   C2        1.0  0.02200  0.75000  0.46570  1.0000
  C   C3        1.0  0.52200  0.25000  0.53430  1.0000
  C   C4        1.0  0.97800  0.25000  0.53430  1.0000
  H   H1        1.0  0.47850  0.75000  0.57550  1.0000
  H   H2        1.0  0.02150  0.75000  0.57550  1.0000
  H   H3        1.0  0.52150  0.25000  0.42450  1.0000
  H   H4        1.0  0.97850  0.25000  0.42450  1.0000
  C   C5        1.0  0.47560  0.72790  0.22810  1.0000
  C   C6        1.0  0.02440  0.77210  0.22810  1.0000
  C   C7        1.0  0.52440  0.22790  0.77190  1.0000
  C   C8        1.0  0.97560  0.27210  0.77190  1.0000
  C   C9        1.0  0.52440  0.27210  0.77190  1.0000
  C   C10       1.0  0.97560  0.22790  0.77190  1.0000
  C   C11       1.0  0.47560  0.77210  0.22810  1.0000
  C   C12       1.0  0.02440  0.72790  0.22810  1.0000
  C   C13       1.0  0.75000  0.59370  0.62150  1.0000
  C   C14       1.0  0.75000  0.90630  0.62150  1.0000
  C   C15       1.0  0.25000  0.09370  0.37850  1.0000
  C   C16       1.0  0.25000  0.40630  0.37850  1.0000
  H   H5        1.0  0.75000  0.62210  0.65630  1.0000
  H   H6        1.0  0.75000  0.87790  0.65630  1.0000
  H   H7        1.0  0.25000  0.12210  0.34370  1.0000
  H   H8        1.0  0.25000  0.37790  0.34370  1.0000
  Cu  Cu1       1.0  0.48834  0.63905  0.80485  1.0000
  Cu  Cu2       1.0  0.01166  0.86095  0.80485  1.0000
  Cu  Cu3       1.0  0.51166  0.13905  0.19515  1.0000
  Cu  Cu4       1.0  0.98834  0.36095  0.19515  1.0000
  Cu  Cu5       1.0  0.51166  0.36095  0.19515  1.0000
  Cu  Cu6       1.0  0.98834  0.13905  0.19515  1.0000
  Cu  Cu7       1.0  0.48834  0.86095  0.80485  1.0000
  Cu  Cu8       1.0  0.01166  0.63905  0.80485  1.0000
  Cu  Cu9       1.0  0.58309  0.59617  0.61618  1.0000
  Cu  Cu10      1.0  0.91691  0.90383  0.61618  1.0000
  Cu  Cu11      1.0  0.41691  0.09617  0.38382  1.0000
  Cu  Cu12      1.0  0.08309  0.40383  0.38382  1.0000
  Cu  Cu13      1.0  0.41691  0.40383  0.38382  1.0000
  Cu  Cu14      1.0  0.08309  0.09617  0.38382  1.0000
  Cu  Cu15      1.0  0.58309  0.90383  0.61618  1.0000
  Cu  Cu16      1.0  0.91691  0.59617  0.61618  1.0000
  Cu  Cu17      1.0  0.44135  0.57813  0.58905  1.0000
  Cu  Cu18      1.0  0.05865  0.92187  0.58905  1.0000
  Cu  Cu19      1.0  0.55865  0.07813  0.41095  1.0000
  Cu  Cu20      1.0  0.94135  0.42187  0.41095  1.0000
  Cu  Cu21      1.0  0.55865  0.42187  0.41095  1.0000
  Cu  Cu22      1.0  0.94135  0.07813  0.41095  1.0000
  Cu  Cu23      1.0  0.44135  0.92187  0.58905  1.0000
  Cu  Cu24      1.0  0.05865  0.57813  0.58905  1.0000
  Cu  Cu25      1.0  0.48892  0.65556  0.48441  1.0000
  Cu  Cu26      1.0  0.01108  0.84444  0.48441  1.0000
  Cu  Cu27      1.0  0.51108  0.15556  0.51559  1.0000
  Cu  Cu28      1.0  0.98892  0.34444  0.51559  1.0000
  Cu  Cu29      1.0  0.51108  0.34444  0.51559  1.0000
  Cu  Cu30      1.0  0.98892  0.15556  0.51559  1.0000
  Cu  Cu31      1.0  0.48892  0.84444  0.48441  1.0000
  Cu  Cu32      1.0  0.01108  0.65556  0.48441  1.0000
  I   I1        1.0  0.52524  0.58794  0.32290  1.0000
  I   I2        1.0  0.97476  0.91206  0.32290  1.0000
  I   I3        1.0  0.47476  0.08794  0.67710  1.0000
  I   I4        1.0  0.02524  0.41206  0.67710  1.0000
  I   I5        1.0  0.47476  0.41206  0.67710  1.0000
  I   I6        1.0  0.02524  0.08794  0.67710  1.0000
  I   I7        1.0  0.52524  0.91206  0.32290  1.0000
  I   I8        1.0  0.97476  0.58794  0.32290  1.0000
  I   I9        1.0  0.61096  0.68009  0.68840  1.0000
  I   I10       1.0  0.88904  0.81991  0.68840  1.0000
  I   I11       1.0  0.38904  0.18009  0.31160  1.0000
  I   I12       1.0  0.11096  0.31991  0.31160  1.0000
  I   I13       1.0  0.38904  0.31991  0.31160  1.0000
  I   I14       1.0  0.11096  0.18009  0.31160  1.0000
  I   I15       1.0  0.61096  0.81991  0.68840  1.0000
  I   I16       1.0  0.88904  0.68009  0.68840  1.0000
  I   I17       1.0  0.35927  0.64945  0.64646  1.0000
  I   I18       1.0  0.14073  0.85055  0.64646  1.0000
  I   I19       1.0  0.64073  0.14945  0.35354  1.0000
  I   I20       1.0  0.85927  0.35055  0.35354  1.0000
  I   I21       1.0  0.64073  0.35055  0.35354  1.0000
  I   I22       1.0  0.85927  0.14945  0.35354  1.0000
  I   I23       1.0  0.35927  0.85055  0.64646  1.0000
  I   I24       1.0  0.14073  0.64945  0.64646  1.0000
  I   I25       1.0  0.51267  0.55549  0.85163  1.0000
  I   I26       1.0  0.98733  0.94451  0.85163  1.0000
  I   I27       1.0  0.48733  0.05549  0.14837  1.0000
  I   I28       1.0  0.01267  0.44451  0.14837  1.0000
  I   I29       1.0  0.48733  0.44451  0.14837  1.0000
  I   I30       1.0  0.01267  0.05549  0.14837  1.0000
  I   I31       1.0  0.51267  0.94451  0.85163  1.0000
  I   I32       1.0  0.98733  0.55549  0.85163  1.0000
  N   N1        1.0  0.47760  0.71377  0.38170  1.0000
  N   N2        1.0  0.02240  0.78623  0.38170  1.0000
  N   N3        1.0  0.52240  0.21377  0.61830  1.0000
  N   N4        1.0  0.97760  0.28623  0.61830  1.0000
  N   N5        1.0  0.52240  0.28623  0.61830  1.0000
  N   N6        1.0  0.97760  0.21377  0.61830  1.0000
  N   N7        1.0  0.47760  0.78623  0.38170  1.0000
  N   N8        1.0  0.02240  0.71377  0.38170  1.0000
  N   N9        1.0  0.68620  0.57167  0.59470  1.0000
  N   N10       1.0  0.81380  0.92833  0.59470  1.0000
  N   N11       1.0  0.31380  0.07167  0.40530  1.0000
  N   N12       1.0  0.18620  0.42833  0.40530  1.0000
  N   N13       1.0  0.31380  0.42833  0.40530  1.0000
  N   N14       1.0  0.18620  0.07167  0.40530  1.0000
  N   N15       1.0  0.68620  0.92833  0.59470  1.0000
  N   N16       1.0  0.81380  0.57167  0.59470  1.0000
  C   C17       1.0  0.47380  0.69870  0.10000  1.0000
  C   C18       1.0  0.02620  0.80130  0.10000  1.0000
  C   C19       1.0  0.52620  0.19870  0.90000  1.0000
  C   C20       1.0  0.97380  0.30130  0.90000  1.0000
  C   C21       1.0  0.52620  0.30130  0.90000  1.0000
  C   C22       1.0  0.97380  0.19870  0.90000  1.0000
  C   C23       1.0  0.47380  0.80130  0.10000  1.0000
  C   C24       1.0  0.02620  0.69870  0.10000  1.0000
  N   N17       1.0  0.47420  0.67500  0.99670  1.0000
  N   N18       1.0  0.02580  0.82500  0.99670  1.0000
  N   N19       1.0  0.52580  0.17500  0.00330  1.0000
  N   N20       1.0  0.97420  0.32500  0.00330  1.0000
  N   N21       1.0  0.52580  0.32500  0.00330  1.0000
  N   N22       1.0  0.97420  0.17500  0.00330  1.0000
  N   N23       1.0  0.47420  0.82500  0.99670  1.0000
  N   N24       1.0  0.02580  0.67500  0.99670  1.0000
  C   C25       1.0  0.71110  0.53184  0.54810  1.0000
  C   C26       1.0  0.78890  0.96816  0.54810  1.0000
  C   C27       1.0  0.28890  0.03184  0.45190  1.0000
  C   C28       1.0  0.21110  0.46816  0.45190  1.0000
  C   C29       1.0  0.28890  0.46816  0.45190  1.0000
  C   C30       1.0  0.21110  0.03184  0.45190  1.0000
  C   C31       1.0  0.71110  0.96816  0.54810  1.0000
  C   C32       1.0  0.78890  0.53184  0.54810  1.0000
  C   C33       1.0  0.66290  0.49790  0.50560  1.0000
  C   C34       1.0  0.83710  0.00210  0.50560  1.0000
  C   C35       1.0  0.33710  0.99790  0.49440  1.0000
  C   C36       1.0  0.16290  0.50210  0.49440  1.0000
  C   C37       1.0  0.33710  0.50210  0.49440  1.0000
  C   C38       1.0  0.16290  0.99790  0.49440  1.0000
  C   C39       1.0  0.66290  0.00210  0.50560  1.0000
  C   C40       1.0  0.83710  0.49790  0.50560  1.0000
  N   N25       1.0  0.62670  0.46917  0.47230  1.0000
  N   N26       1.0  0.87330  0.03083  0.47230  1.0000
  N   N27       1.0  0.37330  0.96917  0.52770  1.0000
  N   N28       1.0  0.12670  0.53083  0.52770  1.0000
  N   N29       1.0  0.37330  0.53083  0.52770  1.0000
  N   N30       1.0  0.12670  0.96917  0.52770  1.0000
  N   N31       1.0  0.62670  0.03083  0.47230  1.0000
  N   N32       1.0  0.87330  0.46917  0.47230  1.0000
