data_image0
_chemical_formula_structural       ZnO8N2C6H2C2H2C2H2C4
_chemical_formula_sum              "Zn1 O8 N2 C14 H6"
_cell_length_a       6.6535
_cell_length_b       8.417
_cell_length_c       10.3399
_cell_angle_alpha    78.493
_cell_angle_beta     79.524
_cell_angle_gamma    71.284

_space_group_name_H-M_alt    "P 1"
_space_group_IT_number       1

loop_
  _space_group_symop_operation_xyz
  'x, y, z'

loop_
  _atom_site_type_symbol
  _atom_site_label
  _atom_site_symmetry_multiplicity
  _atom_site_fract_x
  _atom_site_fract_y
  _atom_site_fract_z
  _atom_site_occupancy
  Zn  Zn1       1.0  0.00000  0.00000  0.00000  1.0000
  O   O1        1.0  0.19351  0.09480  0.84565  1.0000
  O   O2        1.0  0.80649  0.90520  0.15435  1.0000
  O   O3        1.0  0.52743  0.02875  0.74053  1.0000
  O   O4        1.0  0.47257  0.97125  0.25947  1.0000
  O   O5        1.0  0.96403  0.84315  0.85203  1.0000
  O   O6        1.0  0.03597  0.15685  0.14797  1.0000
  O   O7        1.0  0.87264  0.68122  0.74108  1.0000
  O   O8        1.0  0.12736  0.31878  0.25892  1.0000
  N   N1        1.0  0.28879  0.82232  0.03105  1.0000
  N   N2        1.0  0.71121  0.17768  0.96895  1.0000
  C   C1        1.0  0.45027  0.84934  0.93870  1.0000
  C   C2        1.0  0.54973  0.15066  0.06130  1.0000
  C   C3        1.0  0.65942  0.74411  0.94273  1.0000
  C   C4        1.0  0.34058  0.25589  0.05727  1.0000
  C   C5        1.0  0.69830  0.61047  0.04854  1.0000
  C   C6        1.0  0.30170  0.38953  0.95146  1.0000
  H   H1        1.0  0.83660  0.53870  0.05490  1.0000
  H   H2        1.0  0.16340  0.46130  0.94510  1.0000
  C   C7        1.0  0.53200  0.58458  0.14380  1.0000
  C   C8        1.0  0.46800  0.41542  0.85620  1.0000
  H   H3        1.0  0.55700  0.49660  0.21490  1.0000
  H   H4        1.0  0.44300  0.50340  0.78510  1.0000
  C   C9        1.0  0.32724  0.69265  0.13094  1.0000
  C   C10       1.0  0.67276  0.30735  0.86906  1.0000
  H   H5        1.0  0.21390  0.67460  0.19330  1.0000
  H   H6        1.0  0.78610  0.32540  0.80670  1.0000
  C   C11       1.0  0.38876  0.00268  0.83219  1.0000
  C   C12       1.0  0.61124  0.99732  0.16781  1.0000
  C   C13       1.0  0.84343  0.76185  0.83656  1.0000
  C   C14       1.0  0.15657  0.23815  0.16344  1.0000
