data_image0
_chemical_formula_structural       Ca4O24C8H4C4H8C12H12C8H4C12H4C4H4C4H4C4H8
_chemical_formula_sum              "Ca4 O24 C56 H48"
_cell_length_a       7.566
_cell_length_b       17.062
_cell_length_c       11.3231
_cell_angle_alpha    90
_cell_angle_beta     99.531
_cell_angle_gamma    90

_space_group_name_H-M_alt    "P 1"
_space_group_IT_number       1

loop_
  _space_group_symop_operation_xyz
  'x, y, z'

loop_
  _atom_site_type_symbol
  _atom_site_label
  _atom_site_symmetry_multiplicity
  _atom_site_fract_x
  _atom_site_fract_y
  _atom_site_fract_z
  _atom_site_occupancy
  Ca  Ca1       1.0  0.24641  0.47132  0.48679  1.0000
  Ca  Ca2       1.0  0.25359  0.97132  0.01321  1.0000
  Ca  Ca3       1.0  0.75359  0.52868  0.51321  1.0000
  Ca  Ca4       1.0  0.74641  0.02868  0.98679  1.0000
  O   O1        1.0  0.50295  0.44595  0.40229  1.0000
  O   O2        1.0  0.99705  0.94595  0.09771  1.0000
  O   O3        1.0  0.49705  0.55405  0.59771  1.0000
  O   O4        1.0  0.00295  0.05405  0.90229  1.0000
  O   O5        1.0  0.08068  0.42050  0.30380  1.0000
  O   O6        1.0  0.41932  0.92050  0.19620  1.0000
  O   O7        1.0  0.91932  0.57950  0.69620  1.0000
  O   O8        1.0  0.58068  0.07950  0.80380  1.0000
  O   O9        1.0  0.39324  0.36713  0.60775  1.0000
  O   O10       1.0  0.10676  0.86713  0.89225  1.0000
  O   O11       1.0  0.60676  0.63287  0.39225  1.0000
  O   O12       1.0  0.89324  0.13287  0.10775  1.0000
  O   O13       1.0  0.01002  0.57988  0.44887  1.0000
  O   O14       1.0  0.48998  0.07988  0.05113  1.0000
  O   O15       1.0  0.98998  0.42012  0.55113  1.0000
  O   O16       1.0  0.51002  0.92012  0.94887  1.0000
  O   O17       1.0  0.25849  0.54352  0.68380  1.0000
  O   O18       1.0  0.24151  0.04352  0.81620  1.0000
  O   O19       1.0  0.74151  0.45648  0.31620  1.0000
  O   O20       1.0  0.75849  0.95648  0.18380  1.0000
  O   O21       1.0  0.24934  0.59139  0.36219  1.0000
  O   O22       1.0  0.25066  0.09139  0.13781  1.0000
  O   O23       1.0  0.75066  0.40861  0.63781  1.0000
  O   O24       1.0  0.74934  0.90861  0.86219  1.0000
  C   C1        1.0  0.60121  0.42102  0.33093  1.0000
  C   C2        1.0  0.89879  0.92102  0.16907  1.0000
  C   C3        1.0  0.39879  0.57898  0.66907  1.0000
  C   C4        1.0  0.10121  0.07898  0.83093  1.0000
  C   C5        1.0  0.11490  0.42993  0.18390  1.0000
  C   C6        1.0  0.38510  0.92993  0.31610  1.0000
  C   C7        1.0  0.88510  0.57007  0.81610  1.0000
  C   C8        1.0  0.61490  0.07007  0.68390  1.0000
  H   H1        1.0  0.49950  0.37800  0.62820  1.0000
  H   H2        1.0  0.00050  0.87800  0.87180  1.0000
  H   H3        1.0  0.50050  0.62200  0.37180  1.0000
  H   H4        1.0  0.99950  0.12200  0.12820  1.0000
  C   C9        1.0  0.55079  0.34449  0.26725  1.0000
  C   C10       1.0  0.94921  0.84449  0.23275  1.0000
  C   C11       1.0  0.44921  0.65551  0.73275  1.0000
  C   C12       1.0  0.05079  0.15551  0.76725  1.0000
  H   H5        1.0  0.23740  0.44730  0.18620  1.0000
  H   H6        1.0  0.26260  0.94730  0.31380  1.0000
  H   H7        1.0  0.76260  0.55270  0.81380  1.0000
  H   H8        1.0  0.73740  0.05270  0.68620  1.0000
  H   H9        1.0  0.03600  0.47000  0.14370  1.0000
  H   H10       1.0  0.46400  0.97000  0.35630  1.0000
  H   H11       1.0  0.96400  0.53000  0.85630  1.0000
  H   H12       1.0  0.53600  0.03000  0.64370  1.0000
  C   C13       1.0  0.08570  0.35417  0.11374  1.0000
  C   C14       1.0  0.41430  0.85417  0.38626  1.0000
  C   C15       1.0  0.91430  0.64583  0.88626  1.0000
  C   C16       1.0  0.58570  0.14583  0.61374  1.0000
  C   C17       1.0  0.55708  0.33348  0.14295  1.0000
  C   C18       1.0  0.94292  0.83348  0.35705  1.0000
  C   C19       1.0  0.44292  0.66652  0.85705  1.0000
  C   C20       1.0  0.05708  0.16652  0.64295  1.0000
  C   C21       1.0  0.49870  0.28432  0.33490  1.0000
  C   C22       1.0  0.00130  0.78432  0.16510  1.0000
  C   C23       1.0  0.50130  0.71568  0.66510  1.0000
  C   C24       1.0  0.99870  0.21568  0.83490  1.0000
  H   H13       1.0  0.15950  0.31380  0.15530  1.0000
  H   H14       1.0  0.34050  0.81380  0.34470  1.0000
  H   H15       1.0  0.84050  0.68620  0.84470  1.0000
  H   H16       1.0  0.65950  0.18620  0.65530  1.0000
  H   H17       1.0  0.11710  0.36160  0.03580  1.0000
  H   H18       1.0  0.38290  0.86160  0.46420  1.0000
  H   H19       1.0  0.88290  0.63840  0.96420  1.0000
  H   H20       1.0  0.61710  0.13840  0.53580  1.0000
  H   H21       1.0  0.96200  0.33910  0.10560  1.0000
  H   H22       1.0  0.53800  0.83910  0.39440  1.0000
  H   H23       1.0  0.03800  0.66090  0.89440  1.0000
  H   H24       1.0  0.46200  0.16090  0.60560  1.0000
  C   C25       1.0  0.51106  0.25824  0.09046  1.0000
  C   C26       1.0  0.98894  0.75824  0.40954  1.0000
  C   C27       1.0  0.48894  0.74176  0.90954  1.0000
  C   C28       1.0  0.01106  0.24176  0.59046  1.0000
  C   C29       1.0  0.59805  0.39566  0.06768  1.0000
  C   C30       1.0  0.90195  0.89566  0.43232  1.0000
  C   C31       1.0  0.40195  0.60434  0.93232  1.0000
  C   C32       1.0  0.09805  0.10434  0.56768  1.0000
  H   H25       1.0  0.49450  0.29240  0.41560  1.0000
  H   H26       1.0  0.00550  0.79240  0.08440  1.0000
  H   H27       1.0  0.50550  0.70760  0.58440  1.0000
  H   H28       1.0  0.99450  0.20760  0.91560  1.0000
  C   C33       1.0  0.45177  0.21053  0.28295  1.0000
  C   C34       1.0  0.04823  0.71053  0.21705  1.0000
  C   C35       1.0  0.54823  0.78947  0.71705  1.0000
  C   C36       1.0  0.95177  0.28947  0.78295  1.0000
  C   C37       1.0  0.45711  0.19688  0.16388  1.0000
  C   C38       1.0  0.04289  0.69688  0.33612  1.0000
  C   C39       1.0  0.54289  0.80312  0.83612  1.0000
  C   C40       1.0  0.95711  0.30312  0.66388  1.0000
  C   C41       1.0  0.51341  0.24775  0.96659  1.0000
  C   C42       1.0  0.98659  0.74775  0.53341  1.0000
  C   C43       1.0  0.48659  0.75225  0.03341  1.0000
  C   C44       1.0  0.01341  0.25225  0.46659  1.0000
  H   H29       1.0  0.62480  0.44520  0.10010  1.0000
  H   H30       1.0  0.87520  0.94520  0.39990  1.0000
  H   H31       1.0  0.37520  0.55480  0.89990  1.0000
  H   H32       1.0  0.12480  0.05480  0.60010  1.0000
  C   C45       1.0  0.59850  0.38324  0.94816  1.0000
  C   C46       1.0  0.90150  0.88324  0.55184  1.0000
  C   C47       1.0  0.40150  0.61676  0.05184  1.0000
  C   C48       1.0  0.09850  0.11676  0.44816  1.0000
  H   H33       1.0  0.41670  0.17050  0.32990  1.0000
  H   H34       1.0  0.08330  0.67050  0.17010  1.0000
  H   H35       1.0  0.58330  0.82950  0.67010  1.0000
  H   H36       1.0  0.91670  0.32950  0.82990  1.0000
  C   C49       1.0  0.39585  0.11790  0.11401  1.0000
  C   C50       1.0  0.10415  0.61790  0.38599  1.0000
  C   C51       1.0  0.60415  0.88210  0.88599  1.0000
  C   C52       1.0  0.89585  0.38210  0.61401  1.0000
  H   H37       1.0  0.48430  0.19920  0.93150  1.0000
  H   H38       1.0  0.01570  0.69920  0.56850  1.0000
  H   H39       1.0  0.51570  0.80080  0.06850  1.0000
  H   H40       1.0  0.98430  0.30080  0.43150  1.0000
  C   C53       1.0  0.55810  0.30838  0.89795  1.0000
  C   C54       1.0  0.94190  0.80838  0.60205  1.0000
  C   C55       1.0  0.44190  0.69162  0.10205  1.0000
  C   C56       1.0  0.05810  0.19162  0.39795  1.0000
  H   H41       1.0  0.62550  0.42420  0.90000  1.0000
  H   H42       1.0  0.87450  0.92420  0.60000  1.0000
  H   H43       1.0  0.37450  0.57580  0.10000  1.0000
  H   H44       1.0  0.12550  0.07580  0.40000  1.0000
  H   H45       1.0  0.56190  0.30010  0.81720  1.0000
  H   H46       1.0  0.93810  0.80010  0.68280  1.0000
  H   H47       1.0  0.43810  0.69990  0.18280  1.0000
  H   H48       1.0  0.06190  0.19990  0.31720  1.0000
