data_image0
_chemical_formula_structural       C24H8C16H8C16H8C32H8C16H8C8H8C8H8C16H8C16H8C24H8C16H8C16H8C16Co24N16O96H8O16H16
_chemical_formula_sum              "C224 H120 Co24 N16 O112"
_cell_length_a       23.539
_cell_length_b       11.998
_cell_length_c       32.45
_cell_angle_alpha    90
_cell_angle_beta     90
_cell_angle_gamma    90

_space_group_name_H-M_alt    "P 1"
_space_group_IT_number       1

loop_
  _space_group_symop_operation_xyz
  'x, y, z'

loop_
  _atom_site_type_symbol
  _atom_site_label
  _atom_site_symmetry_multiplicity
  _atom_site_fract_x
  _atom_site_fract_y
  _atom_site_fract_z
  _atom_site_occupancy
  C   C1        1.0  0.46542  0.50260  0.09354  1.0000
  C   C2        1.0  0.03458  0.49740  0.59354  1.0000
  C   C3        1.0  0.96542  0.99740  0.90646  1.0000
  C   C4        1.0  0.53458  0.00260  0.40646  1.0000
  C   C5        1.0  0.53458  0.49740  0.90646  1.0000
  C   C6        1.0  0.96542  0.50260  0.40646  1.0000
  C   C7        1.0  0.03458  0.00260  0.09354  1.0000
  C   C8        1.0  0.46542  0.99740  0.59354  1.0000
  C   C9        1.0  0.46755  0.60800  0.06786  1.0000
  C   C10       1.0  0.03245  0.39200  0.56786  1.0000
  C   C11       1.0  0.96755  0.89200  0.93214  1.0000
  C   C12       1.0  0.53245  0.10800  0.43214  1.0000
  C   C13       1.0  0.53245  0.39200  0.93214  1.0000
  C   C14       1.0  0.96755  0.60800  0.43214  1.0000
  C   C15       1.0  0.03245  0.10800  0.06786  1.0000
  C   C16       1.0  0.46755  0.89200  0.56786  1.0000
  C   C17       1.0  0.42803  0.69110  0.07632  1.0000
  C   C18       1.0  0.07197  0.30890  0.57632  1.0000
  C   C19       1.0  0.92803  0.80890  0.92368  1.0000
  C   C20       1.0  0.57197  0.19110  0.42368  1.0000
  C   C21       1.0  0.57197  0.30890  0.92368  1.0000
  C   C22       1.0  0.92803  0.69110  0.42368  1.0000
  C   C23       1.0  0.07197  0.19110  0.07632  1.0000
  C   C24       1.0  0.42803  0.80890  0.57632  1.0000
  H   H1        1.0  0.40260  0.68130  0.09790  1.0000
  H   H2        1.0  0.09740  0.31870  0.59790  1.0000
  H   H3        1.0  0.90260  0.81870  0.90210  1.0000
  H   H4        1.0  0.59740  0.18130  0.40210  1.0000
  H   H5        1.0  0.59740  0.31870  0.90210  1.0000
  H   H6        1.0  0.90260  0.68130  0.40210  1.0000
  H   H7        1.0  0.09740  0.18130  0.09790  1.0000
  H   H8        1.0  0.40260  0.81870  0.59790  1.0000
  C   C25       1.0  0.42571  0.78920  0.05303  1.0000
  C   C26       1.0  0.07429  0.21080  0.55303  1.0000
  C   C27       1.0  0.92571  0.71080  0.94697  1.0000
  C   C28       1.0  0.57429  0.28920  0.44697  1.0000
  C   C29       1.0  0.57429  0.21080  0.94697  1.0000
  C   C30       1.0  0.92571  0.78920  0.44697  1.0000
  C   C31       1.0  0.07429  0.28920  0.05303  1.0000
  C   C32       1.0  0.42571  0.71080  0.55303  1.0000
  C   C33       1.0  0.46384  0.80300  0.02100  1.0000
  C   C34       1.0  0.03616  0.19700  0.52100  1.0000
  C   C35       1.0  0.96384  0.69700  0.97900  1.0000
  C   C36       1.0  0.53616  0.30300  0.47900  1.0000
  C   C37       1.0  0.53616  0.19700  0.97900  1.0000
  C   C38       1.0  0.96384  0.80300  0.47900  1.0000
  C   C39       1.0  0.03616  0.30300  0.02100  1.0000
  C   C40       1.0  0.46384  0.69700  0.52100  1.0000
  H   H9        1.0  0.46250  0.86740  0.00500  1.0000
  H   H10       1.0  0.03750  0.13260  0.50500  1.0000
  H   H11       1.0  0.96250  0.63260  0.99500  1.0000
  H   H12       1.0  0.53750  0.36740  0.49500  1.0000
  H   H13       1.0  0.53750  0.13260  0.99500  1.0000
  H   H14       1.0  0.96250  0.86740  0.49500  1.0000
  H   H15       1.0  0.03750  0.36740  0.00500  1.0000
  H   H16       1.0  0.46250  0.63260  0.50500  1.0000
  C   C41       1.0  0.50417  0.72120  0.01251  1.0000
  C   C42       1.0  0.99583  0.27880  0.51251  1.0000
  C   C43       1.0  0.00417  0.77880  0.98749  1.0000
  C   C44       1.0  0.49583  0.22120  0.48749  1.0000
  C   C45       1.0  0.49583  0.27880  0.98749  1.0000
  C   C46       1.0  0.00417  0.72120  0.48749  1.0000
  C   C47       1.0  0.99583  0.22120  0.01251  1.0000
  C   C48       1.0  0.50417  0.77880  0.51251  1.0000
  C   C49       1.0  0.50633  0.62360  0.03598  1.0000
  C   C50       1.0  0.99367  0.37640  0.53598  1.0000
  C   C51       1.0  0.00633  0.87640  0.96402  1.0000
  C   C52       1.0  0.49367  0.12360  0.46402  1.0000
  C   C53       1.0  0.49367  0.37640  0.96402  1.0000
  C   C54       1.0  0.00633  0.62360  0.46402  1.0000
  C   C55       1.0  0.99367  0.12360  0.03598  1.0000
  C   C56       1.0  0.50633  0.87640  0.53598  1.0000
  H   H17       1.0  0.53350  0.56940  0.03030  1.0000
  H   H18       1.0  0.96650  0.43060  0.53030  1.0000
  H   H19       1.0  0.03350  0.93060  0.96970  1.0000
  H   H20       1.0  0.46650  0.06940  0.46970  1.0000
  H   H21       1.0  0.46650  0.43060  0.96970  1.0000
  H   H22       1.0  0.03350  0.56940  0.46970  1.0000
  H   H23       1.0  0.96650  0.06940  0.03030  1.0000
  H   H24       1.0  0.53350  0.93060  0.53030  1.0000
  C   C57       1.0  0.54479  0.74100  0.97766  1.0000
  C   C58       1.0  0.95521  0.25900  0.47766  1.0000
  C   C59       1.0  0.04479  0.75900  0.02234  1.0000
  C   C60       1.0  0.45521  0.24100  0.52234  1.0000
  C   C61       1.0  0.45521  0.25900  0.02234  1.0000
  C   C62       1.0  0.04479  0.74100  0.52234  1.0000
  C   C63       1.0  0.95521  0.24100  0.97766  1.0000
  C   C64       1.0  0.54479  0.75900  0.47766  1.0000
  C   C65       1.0  0.22155  0.88480  0.08169  1.0000
  C   C66       1.0  0.27845  0.11520  0.58169  1.0000
  C   C67       1.0  0.72155  0.61520  0.91831  1.0000
  C   C68       1.0  0.77845  0.38480  0.41831  1.0000
  C   C69       1.0  0.77845  0.11520  0.91831  1.0000
  C   C70       1.0  0.72155  0.88480  0.41831  1.0000
  C   C71       1.0  0.27845  0.38480  0.08169  1.0000
  C   C72       1.0  0.22155  0.61520  0.58169  1.0000
  C   C73       1.0  0.28317  0.91880  0.07626  1.0000
  C   C74       1.0  0.21683  0.08120  0.57626  1.0000
  C   C75       1.0  0.78317  0.58120  0.92374  1.0000
  C   C76       1.0  0.71683  0.41880  0.42374  1.0000
  C   C77       1.0  0.71683  0.08120  0.92374  1.0000
  C   C78       1.0  0.78317  0.91880  0.42374  1.0000
  C   C79       1.0  0.21683  0.41880  0.07626  1.0000
  C   C80       1.0  0.28317  0.58120  0.57626  1.0000
  C   C81       1.0  0.32515  0.84030  0.06946  1.0000
  C   C82       1.0  0.17485  0.15970  0.56946  1.0000
  C   C83       1.0  0.82515  0.65970  0.93054  1.0000
  C   C84       1.0  0.67485  0.34030  0.43054  1.0000
  C   C85       1.0  0.67485  0.15970  0.93054  1.0000
  C   C86       1.0  0.82515  0.84030  0.43054  1.0000
  C   C87       1.0  0.17485  0.34030  0.06946  1.0000
  C   C88       1.0  0.32515  0.65970  0.56946  1.0000
  H   H25       1.0  0.31600  0.76480  0.06990  1.0000
  H   H26       1.0  0.18400  0.23520  0.56990  1.0000
  H   H27       1.0  0.81600  0.73520  0.93010  1.0000
  H   H28       1.0  0.68400  0.26480  0.43010  1.0000
  H   H29       1.0  0.68400  0.23520  0.93010  1.0000
  H   H30       1.0  0.81600  0.76480  0.43010  1.0000
  H   H31       1.0  0.18400  0.26480  0.06990  1.0000
  H   H32       1.0  0.31600  0.73520  0.56990  1.0000
  C   C89       1.0  0.38098  0.87310  0.06202  1.0000
  C   C90       1.0  0.11902  0.12690  0.56202  1.0000
  C   C91       1.0  0.88098  0.62690  0.93798  1.0000
  C   C92       1.0  0.61902  0.37310  0.43798  1.0000
  C   C93       1.0  0.61902  0.12690  0.93798  1.0000
  C   C94       1.0  0.88098  0.87310  0.43798  1.0000
  C   C95       1.0  0.11902  0.37310  0.06202  1.0000
  C   C96       1.0  0.38098  0.62690  0.56202  1.0000
  C   C97       1.0  0.39229  0.98760  0.06176  1.0000
  C   C98       1.0  0.10771  0.01240  0.56176  1.0000
  C   C99       1.0  0.89229  0.51240  0.93824  1.0000
  C   C100      1.0  0.60771  0.48760  0.43824  1.0000
  C   C101      1.0  0.60771  0.01240  0.93824  1.0000
  C   C102      1.0  0.89229  0.98760  0.43824  1.0000
  C   C103      1.0  0.10771  0.48760  0.06176  1.0000
  C   C104      1.0  0.39229  0.51240  0.56176  1.0000
  H   H33       1.0  0.42940  0.01100  0.05690  1.0000
  H   H34       1.0  0.07060  0.98900  0.55690  1.0000
  H   H35       1.0  0.92940  0.48900  0.94310  1.0000
  H   H36       1.0  0.57060  0.51100  0.44310  1.0000
  H   H37       1.0  0.57060  0.98900  0.94310  1.0000
  H   H38       1.0  0.92940  0.01100  0.44310  1.0000
  H   H39       1.0  0.07060  0.51100  0.05690  1.0000
  H   H40       1.0  0.42940  0.48900  0.55690  1.0000
  C   C105      1.0  0.29801  0.03050  0.07581  1.0000
  C   C106      1.0  0.20199  0.96950  0.57581  1.0000
  C   C107      1.0  0.79801  0.46950  0.92419  1.0000
  C   C108      1.0  0.70199  0.53050  0.42419  1.0000
  C   C109      1.0  0.70199  0.96950  0.92419  1.0000
  C   C110      1.0  0.79801  0.03050  0.42419  1.0000
  C   C111      1.0  0.20199  0.53050  0.07581  1.0000
  C   C112      1.0  0.29801  0.46950  0.57581  1.0000
  H   H41       1.0  0.27010  0.08350  0.08090  1.0000
  H   H42       1.0  0.22990  0.91650  0.58090  1.0000
  H   H43       1.0  0.77010  0.41650  0.91910  1.0000
  H   H44       1.0  0.72990  0.58350  0.41910  1.0000
  H   H45       1.0  0.72990  0.91650  0.91910  1.0000
  H   H46       1.0  0.77010  0.08350  0.41910  1.0000
  H   H47       1.0  0.22990  0.58350  0.08090  1.0000
  H   H48       1.0  0.27010  0.41650  0.58090  1.0000
  C   C113      1.0  0.70863  0.10230  0.32691  1.0000
  C   C114      1.0  0.79137  0.89770  0.82691  1.0000
  C   C115      1.0  0.20863  0.39770  0.67309  1.0000
  C   C116      1.0  0.29137  0.60230  0.17309  1.0000
  C   C117      1.0  0.29137  0.89770  0.67309  1.0000
  C   C118      1.0  0.20863  0.10230  0.17309  1.0000
  C   C119      1.0  0.79137  0.60230  0.32691  1.0000
  C   C120      1.0  0.70863  0.39770  0.82691  1.0000
  H   H49       1.0  0.73610  0.05010  0.33410  1.0000
  H   H50       1.0  0.76390  0.94990  0.83410  1.0000
  H   H51       1.0  0.23610  0.44990  0.66590  1.0000
  H   H52       1.0  0.26390  0.55010  0.16590  1.0000
  H   H53       1.0  0.26390  0.94990  0.66590  1.0000
  H   H54       1.0  0.23610  0.05010  0.16590  1.0000
  H   H55       1.0  0.76390  0.55010  0.33410  1.0000
  H   H56       1.0  0.73610  0.44990  0.83410  1.0000
  C   C121      1.0  0.72546  0.21090  0.32056  1.0000
  C   C122      1.0  0.77454  0.78910  0.82056  1.0000
  C   C123      1.0  0.22546  0.28910  0.67944  1.0000
  C   C124      1.0  0.27454  0.71090  0.17944  1.0000
  C   C125      1.0  0.27454  0.78910  0.67944  1.0000
  C   C126      1.0  0.22546  0.21090  0.17944  1.0000
  C   C127      1.0  0.77454  0.71090  0.32056  1.0000
  C   C128      1.0  0.72546  0.28910  0.82056  1.0000
  C   C129      1.0  0.68415  0.28960  0.31039  1.0000
  C   C130      1.0  0.81585  0.71040  0.81039  1.0000
  C   C131      1.0  0.18415  0.21040  0.68961  1.0000
  C   C132      1.0  0.31585  0.78960  0.18961  1.0000
  C   C133      1.0  0.31585  0.71040  0.68961  1.0000
  C   C134      1.0  0.18415  0.28960  0.18961  1.0000
  C   C135      1.0  0.81585  0.78960  0.31039  1.0000
  C   C136      1.0  0.68415  0.21040  0.81039  1.0000
  H   H57       1.0  0.69390  0.36430  0.30740  1.0000
  H   H58       1.0  0.80610  0.63570  0.80740  1.0000
  H   H59       1.0  0.19390  0.13570  0.69260  1.0000
  H   H60       1.0  0.30610  0.86430  0.19260  1.0000
  H   H61       1.0  0.30610  0.63570  0.69260  1.0000
  H   H62       1.0  0.19390  0.36430  0.19260  1.0000
  H   H63       1.0  0.80610  0.86430  0.30740  1.0000
  H   H64       1.0  0.69390  0.13570  0.80740  1.0000
  C   C137      1.0  0.62826  0.25530  0.30480  1.0000
  C   C138      1.0  0.87174  0.74470  0.80480  1.0000
  C   C139      1.0  0.12826  0.24470  0.69520  1.0000
  C   C140      1.0  0.37174  0.75530  0.19520  1.0000
  C   C141      1.0  0.37174  0.74470  0.69520  1.0000
  C   C142      1.0  0.12826  0.25530  0.19520  1.0000
  C   C143      1.0  0.87174  0.75530  0.30480  1.0000
  C   C144      1.0  0.62826  0.24470  0.80480  1.0000
  C   C145      1.0  0.61674  0.14410  0.31134  1.0000
  C   C146      1.0  0.88326  0.85590  0.81134  1.0000
  C   C147      1.0  0.11674  0.35590  0.68866  1.0000
  C   C148      1.0  0.38326  0.64410  0.18866  1.0000
  C   C149      1.0  0.38326  0.85590  0.68866  1.0000
  C   C150      1.0  0.11674  0.14410  0.18866  1.0000
  C   C151      1.0  0.88326  0.64410  0.31134  1.0000
  C   C152      1.0  0.61674  0.35590  0.81134  1.0000
  H   H65       1.0  0.57960  0.11980  0.30720  1.0000
  H   H66       1.0  0.92040  0.88020  0.80720  1.0000
  H   H67       1.0  0.07960  0.38020  0.69280  1.0000
  H   H68       1.0  0.42040  0.61980  0.19280  1.0000
  H   H69       1.0  0.42040  0.88020  0.69280  1.0000
  H   H70       1.0  0.07960  0.11980  0.19280  1.0000
  H   H71       1.0  0.92040  0.61980  0.30720  1.0000
  H   H72       1.0  0.57960  0.38020  0.80720  1.0000
  C   C153      1.0  0.47455  0.35710  0.20376  1.0000
  C   C154      1.0  0.02545  0.64290  0.70376  1.0000
  C   C155      1.0  0.97455  0.14290  0.79624  1.0000
  C   C156      1.0  0.52545  0.85710  0.29624  1.0000
  C   C157      1.0  0.52545  0.64290  0.79624  1.0000
  C   C158      1.0  0.97455  0.35710  0.29624  1.0000
  C   C159      1.0  0.02545  0.85710  0.20376  1.0000
  C   C160      1.0  0.47455  0.14290  0.70376  1.0000
  C   C161      1.0  0.50369  0.37210  0.24505  1.0000
  C   C162      1.0  0.99631  0.62790  0.74505  1.0000
  C   C163      1.0  0.00369  0.12790  0.75495  1.0000
  C   C164      1.0  0.49631  0.87210  0.25495  1.0000
  C   C165      1.0  0.49631  0.62790  0.75495  1.0000
  C   C166      1.0  0.00369  0.37210  0.25495  1.0000
  C   C167      1.0  0.99631  0.87210  0.24505  1.0000
  C   C168      1.0  0.50369  0.12790  0.74505  1.0000
  C   C169      1.0  0.55195  0.31200  0.25505  1.0000
  C   C170      1.0  0.94805  0.68800  0.75505  1.0000
  C   C171      1.0  0.05195  0.18800  0.74495  1.0000
  C   C172      1.0  0.44805  0.81200  0.24495  1.0000
  C   C173      1.0  0.44805  0.68800  0.74495  1.0000
  C   C174      1.0  0.05195  0.31200  0.24495  1.0000
  C   C175      1.0  0.94805  0.81200  0.25505  1.0000
  C   C176      1.0  0.55195  0.18800  0.75505  1.0000
  H   H73       1.0  0.56580  0.25900  0.23670  1.0000
  H   H74       1.0  0.93420  0.74100  0.73670  1.0000
  H   H75       1.0  0.06580  0.24100  0.76330  1.0000
  H   H76       1.0  0.43420  0.75900  0.26330  1.0000
  H   H77       1.0  0.43420  0.74100  0.76330  1.0000
  H   H78       1.0  0.06580  0.25900  0.26330  1.0000
  H   H79       1.0  0.93420  0.75900  0.23670  1.0000
  H   H80       1.0  0.56580  0.24100  0.73670  1.0000
  C   C177      1.0  0.58019  0.33000  0.29257  1.0000
  C   C178      1.0  0.91981  0.67000  0.79257  1.0000
  C   C179      1.0  0.08019  0.17000  0.70743  1.0000
  C   C180      1.0  0.41981  0.83000  0.20743  1.0000
  C   C181      1.0  0.41981  0.67000  0.70743  1.0000
  C   C182      1.0  0.08019  0.33000  0.20743  1.0000
  C   C183      1.0  0.91981  0.83000  0.29257  1.0000
  C   C184      1.0  0.58019  0.17000  0.79257  1.0000
  C   C185      1.0  0.55978  0.41180  0.31898  1.0000
  C   C186      1.0  0.94022  0.58820  0.81898  1.0000
  C   C187      1.0  0.05978  0.08820  0.68102  1.0000
  C   C188      1.0  0.44022  0.91180  0.18102  1.0000
  C   C189      1.0  0.44022  0.58820  0.68102  1.0000
  C   C190      1.0  0.05978  0.41180  0.18102  1.0000
  C   C191      1.0  0.94022  0.91180  0.31898  1.0000
  C   C192      1.0  0.55978  0.08820  0.81898  1.0000
  H   H81       1.0  0.57950  0.42790  0.34310  1.0000
  H   H82       1.0  0.92050  0.57210  0.84310  1.0000
  H   H83       1.0  0.07950  0.07210  0.65690  1.0000
  H   H84       1.0  0.42050  0.92790  0.15690  1.0000
  H   H85       1.0  0.42050  0.57210  0.65690  1.0000
  H   H86       1.0  0.07950  0.42790  0.15690  1.0000
  H   H87       1.0  0.92050  0.92790  0.34310  1.0000
  H   H88       1.0  0.57950  0.07210  0.84310  1.0000
  C   C193      1.0  0.51017  0.46980  0.30991  1.0000
  C   C194      1.0  0.98983  0.53020  0.80991  1.0000
  C   C195      1.0  0.01017  0.03020  0.69009  1.0000
  C   C196      1.0  0.48983  0.96980  0.19009  1.0000
  C   C197      1.0  0.48983  0.53020  0.69009  1.0000
  C   C198      1.0  0.01017  0.46980  0.19009  1.0000
  C   C199      1.0  0.98983  0.96980  0.30991  1.0000
  C   C200      1.0  0.51017  0.03020  0.80991  1.0000
  C   C201      1.0  0.48213  0.44850  0.27315  1.0000
  C   C202      1.0  0.01787  0.55150  0.77315  1.0000
  C   C203      1.0  0.98213  0.05150  0.72685  1.0000
  C   C204      1.0  0.51787  0.94850  0.22685  1.0000
  C   C205      1.0  0.51787  0.55150  0.72685  1.0000
  C   C206      1.0  0.98213  0.44850  0.22685  1.0000
  C   C207      1.0  0.01787  0.94850  0.27315  1.0000
  C   C208      1.0  0.48213  0.05150  0.77315  1.0000
  H   H89       1.0  0.44850  0.48580  0.26730  1.0000
  H   H90       1.0  0.05150  0.51420  0.76730  1.0000
  H   H91       1.0  0.94850  0.01420  0.73270  1.0000
  H   H92       1.0  0.55150  0.98580  0.23270  1.0000
  H   H93       1.0  0.55150  0.51420  0.73270  1.0000
  H   H94       1.0  0.94850  0.48580  0.23270  1.0000
  H   H95       1.0  0.05150  0.98580  0.26730  1.0000
  H   H96       1.0  0.44850  0.01420  0.76730  1.0000
  C   C209      1.0  0.48591  0.55680  0.33855  1.0000
  C   C210      1.0  0.01409  0.44320  0.83855  1.0000
  C   C211      1.0  0.98591  0.94320  0.66145  1.0000
  C   C212      1.0  0.51409  0.05680  0.16145  1.0000
  C   C213      1.0  0.51409  0.44320  0.66145  1.0000
  C   C214      1.0  0.98591  0.55680  0.16145  1.0000
  C   C215      1.0  0.01409  0.05680  0.33855  1.0000
  C   C216      1.0  0.48591  0.94320  0.83855  1.0000
  C   C217      1.0  0.78765  0.24020  0.32643  1.0000
  C   C218      1.0  0.71235  0.75980  0.82643  1.0000
  C   C219      1.0  0.28765  0.25980  0.67357  1.0000
  C   C220      1.0  0.21235  0.74020  0.17357  1.0000
  C   C221      1.0  0.21235  0.75980  0.67357  1.0000
  C   C222      1.0  0.28765  0.24020  0.17357  1.0000
  C   C223      1.0  0.71235  0.74020  0.32643  1.0000
  C   C224      1.0  0.78765  0.25980  0.82643  1.0000
  Co  Co1       1.0  0.37218  0.41311  0.15174  1.0000
  Co  Co2       1.0  0.12782  0.58689  0.65174  1.0000
  Co  Co3       1.0  0.87218  0.08689  0.84826  1.0000
  Co  Co4       1.0  0.62782  0.91311  0.34826  1.0000
  Co  Co5       1.0  0.62782  0.58689  0.84826  1.0000
  Co  Co6       1.0  0.87218  0.41311  0.34826  1.0000
  Co  Co7       1.0  0.12782  0.91311  0.15174  1.0000
  Co  Co8       1.0  0.37218  0.08689  0.65174  1.0000
  Co  Co9       1.0  0.36756  0.23434  0.06953  1.0000
  Co  Co10      1.0  0.13244  0.76566  0.56953  1.0000
  Co  Co11      1.0  0.86756  0.26566  0.93047  1.0000
  Co  Co12      1.0  0.63244  0.73434  0.43047  1.0000
  Co  Co13      1.0  0.63244  0.76566  0.93047  1.0000
  Co  Co14      1.0  0.86756  0.23434  0.43047  1.0000
  Co  Co15      1.0  0.13244  0.73434  0.06953  1.0000
  Co  Co16      1.0  0.36756  0.26566  0.56953  1.0000
  Co  Co17      1.0  0.48801  0.26737  0.11528  1.0000
  Co  Co18      1.0  0.01199  0.73263  0.61528  1.0000
  Co  Co19      1.0  0.98801  0.23263  0.88472  1.0000
  Co  Co20      1.0  0.51199  0.76737  0.38472  1.0000
  Co  Co21      1.0  0.51199  0.73263  0.88472  1.0000
  Co  Co22      1.0  0.98801  0.26737  0.38472  1.0000
  Co  Co23      1.0  0.01199  0.76737  0.11528  1.0000
  Co  Co24      1.0  0.48801  0.23263  0.61528  1.0000
  N   N1        1.0  0.65523  0.06860  0.32321  1.0000
  N   N2        1.0  0.84477  0.93140  0.82321  1.0000
  N   N3        1.0  0.15523  0.43140  0.67679  1.0000
  N   N4        1.0  0.34477  0.56860  0.17679  1.0000
  N   N5        1.0  0.34477  0.93140  0.67679  1.0000
  N   N6        1.0  0.15523  0.06860  0.17679  1.0000
  N   N7        1.0  0.84477  0.56860  0.32321  1.0000
  N   N8        1.0  0.65523  0.43140  0.82321  1.0000
  N   N9        1.0  0.35213  0.06540  0.06813  1.0000
  N   N10       1.0  0.14787  0.93460  0.56813  1.0000
  N   N11       1.0  0.85213  0.43460  0.93187  1.0000
  N   N12       1.0  0.64787  0.56540  0.43187  1.0000
  N   N13       1.0  0.64787  0.93460  0.93187  1.0000
  N   N14       1.0  0.85213  0.06540  0.43187  1.0000
  N   N15       1.0  0.14787  0.56540  0.06813  1.0000
  N   N16       1.0  0.35213  0.43460  0.56813  1.0000
  O   O1        1.0  0.43346  0.50710  0.12410  1.0000
  O   O2        1.0  0.06654  0.49290  0.62410  1.0000
  O   O3        1.0  0.93346  0.99290  0.87590  1.0000
  O   O4        1.0  0.56654  0.00710  0.37590  1.0000
  O   O5        1.0  0.56654  0.49290  0.87590  1.0000
  O   O6        1.0  0.93346  0.50710  0.37590  1.0000
  O   O7        1.0  0.06654  0.00710  0.12410  1.0000
  O   O8        1.0  0.43346  0.99290  0.62410  1.0000
  O   O9        1.0  0.49561  0.42030  0.08313  1.0000
  O   O10       1.0  0.00439  0.57970  0.58313  1.0000
  O   O11       1.0  0.99561  0.07970  0.91687  1.0000
  O   O12       1.0  0.50439  0.92030  0.41687  1.0000
  O   O13       1.0  0.50439  0.57970  0.91687  1.0000
  O   O14       1.0  0.99561  0.42030  0.41687  1.0000
  O   O15       1.0  0.00439  0.92030  0.08313  1.0000
  O   O16       1.0  0.49561  0.07970  0.58313  1.0000
  O   O17       1.0  0.59427  0.69870  0.97976  1.0000
  O   O18       1.0  0.90573  0.30130  0.47976  1.0000
  O   O19       1.0  0.09427  0.80130  0.02024  1.0000
  O   O20       1.0  0.40573  0.19870  0.52024  1.0000
  O   O21       1.0  0.40573  0.30130  0.02024  1.0000
  O   O22       1.0  0.09427  0.69870  0.52024  1.0000
  O   O23       1.0  0.90573  0.19870  0.97976  1.0000
  O   O24       1.0  0.59427  0.80130  0.47976  1.0000
  O   O25       1.0  0.53008  0.80250  0.94810  1.0000
  O   O26       1.0  0.96992  0.19750  0.44810  1.0000
  O   O27       1.0  0.03008  0.69750  0.05190  1.0000
  O   O28       1.0  0.46992  0.30250  0.55190  1.0000
  O   O29       1.0  0.46992  0.19750  0.05190  1.0000
  O   O30       1.0  0.03008  0.80250  0.55190  1.0000
  O   O31       1.0  0.96992  0.30250  0.94810  1.0000
  O   O32       1.0  0.53008  0.69750  0.44810  1.0000
  O   O33       1.0  0.21152  0.78540  0.07010  1.0000
  O   O34       1.0  0.28848  0.21460  0.57010  1.0000
  O   O35       1.0  0.71152  0.71460  0.92990  1.0000
  O   O36       1.0  0.78848  0.28540  0.42990  1.0000
  O   O37       1.0  0.78848  0.21460  0.92990  1.0000
  O   O38       1.0  0.71152  0.78540  0.42990  1.0000
  O   O39       1.0  0.28848  0.28540  0.07010  1.0000
  O   O40       1.0  0.21152  0.71460  0.57010  1.0000
  O   O41       1.0  0.18702  0.95150  0.09589  1.0000
  O   O42       1.0  0.31298  0.04850  0.59589  1.0000
  O   O43       1.0  0.68702  0.54850  0.90411  1.0000
  O   O44       1.0  0.81298  0.45150  0.40411  1.0000
  O   O45       1.0  0.81298  0.04850  0.90411  1.0000
  O   O46       1.0  0.68702  0.95150  0.40411  1.0000
  O   O47       1.0  0.31298  0.45150  0.09589  1.0000
  O   O48       1.0  0.18702  0.54850  0.59589  1.0000
  O   O49       1.0  0.50409  0.31810  0.17539  1.0000
  O   O50       1.0  0.99591  0.68190  0.67539  1.0000
  O   O51       1.0  0.00409  0.18190  0.82461  1.0000
  O   O52       1.0  0.49591  0.81810  0.32461  1.0000
  O   O53       1.0  0.49591  0.68190  0.82461  1.0000
  O   O54       1.0  0.00409  0.31810  0.32461  1.0000
  O   O55       1.0  0.99591  0.81810  0.17539  1.0000
  O   O56       1.0  0.50409  0.18190  0.67539  1.0000
  O   O57       1.0  0.42317  0.38660  0.20248  1.0000
  O   O58       1.0  0.07683  0.61340  0.70248  1.0000
  O   O59       1.0  0.92317  0.11340  0.79752  1.0000
  O   O60       1.0  0.57683  0.88660  0.29752  1.0000
  O   O61       1.0  0.57683  0.61340  0.79752  1.0000
  O   O62       1.0  0.92317  0.38660  0.29752  1.0000
  O   O63       1.0  0.07683  0.88660  0.20248  1.0000
  O   O64       1.0  0.42317  0.11340  0.70248  1.0000
  O   O65       1.0  0.43404  0.58020  0.33500  1.0000
  O   O66       1.0  0.06596  0.41980  0.83500  1.0000
  O   O67       1.0  0.93404  0.91980  0.66500  1.0000
  O   O68       1.0  0.56596  0.08020  0.16500  1.0000
  O   O69       1.0  0.56596  0.41980  0.66500  1.0000
  O   O70       1.0  0.93404  0.58020  0.16500  1.0000
  O   O71       1.0  0.06596  0.08020  0.33500  1.0000
  O   O72       1.0  0.43404  0.91980  0.83500  1.0000
  O   O73       1.0  0.51917  0.60040  0.36426  1.0000
  O   O74       1.0  0.98083  0.39960  0.86426  1.0000
  O   O75       1.0  0.01917  0.89960  0.63574  1.0000
  O   O76       1.0  0.48083  0.10040  0.13574  1.0000
  O   O77       1.0  0.48083  0.39960  0.63574  1.0000
  O   O78       1.0  0.01917  0.60040  0.13574  1.0000
  O   O79       1.0  0.98083  0.10040  0.36426  1.0000
  O   O80       1.0  0.51917  0.89960  0.86426  1.0000
  O   O81       1.0  0.57564  0.24380  0.11021  1.0000
  O   O82       1.0  0.92436  0.75620  0.61021  1.0000
  O   O83       1.0  0.07564  0.25620  0.88979  1.0000
  O   O84       1.0  0.42436  0.74380  0.38979  1.0000
  O   O85       1.0  0.42436  0.75620  0.88979  1.0000
  O   O86       1.0  0.07564  0.24380  0.38979  1.0000
  O   O87       1.0  0.92436  0.74380  0.11021  1.0000
  O   O88       1.0  0.57564  0.25620  0.61021  1.0000
  O   O89       1.0  0.40174  0.27190  0.12220  1.0000
  O   O90       1.0  0.09826  0.72810  0.62220  1.0000
  O   O91       1.0  0.90174  0.22810  0.87780  1.0000
  O   O92       1.0  0.59826  0.77190  0.37780  1.0000
  O   O93       1.0  0.59826  0.72810  0.87780  1.0000
  O   O94       1.0  0.90174  0.27190  0.37780  1.0000
  O   O95       1.0  0.09826  0.77190  0.12220  1.0000
  O   O96       1.0  0.40174  0.22810  0.62220  1.0000
  H   H97       1.0  0.39250  0.20970  0.14060  1.0000
  H   H98       1.0  0.10750  0.79030  0.64060  1.0000
  H   H99       1.0  0.89250  0.29030  0.85940  1.0000
  H   H100      1.0  0.60750  0.70970  0.35940  1.0000
  H   H101      1.0  0.60750  0.79030  0.85940  1.0000
  H   H102      1.0  0.89250  0.20970  0.35940  1.0000
  H   H103      1.0  0.10750  0.70970  0.14060  1.0000
  H   H104      1.0  0.39250  0.29030  0.64060  1.0000
  O   O97       1.0  0.79950  0.34310  0.32515  1.0000
  O   O98       1.0  0.70050  0.65690  0.82515  1.0000
  O   O99       1.0  0.29950  0.15690  0.67485  1.0000
  O   O100      1.0  0.20050  0.84310  0.17485  1.0000
  O   O101      1.0  0.20050  0.65690  0.67485  1.0000
  O   O102      1.0  0.29950  0.34310  0.17485  1.0000
  O   O103      1.0  0.70050  0.84310  0.32515  1.0000
  O   O104      1.0  0.79950  0.15690  0.82515  1.0000
  O   O105      1.0  0.82143  0.16220  0.33210  1.0000
  O   O106      1.0  0.67857  0.83780  0.83210  1.0000
  O   O107      1.0  0.32143  0.33780  0.66790  1.0000
  O   O108      1.0  0.17857  0.66220  0.16790  1.0000
  O   O109      1.0  0.17857  0.83780  0.66790  1.0000
  O   O110      1.0  0.32143  0.16220  0.16790  1.0000
  O   O111      1.0  0.67857  0.66220  0.33210  1.0000
  O   O112      1.0  0.82143  0.33780  0.83210  1.0000
  H   H105      1.0  0.57100  0.19000  0.12710  1.0000
  H   H106      1.0  0.92900  0.81000  0.62710  1.0000
  H   H107      1.0  0.07100  0.31000  0.87290  1.0000
  H   H108      1.0  0.42900  0.69000  0.37290  1.0000
  H   H109      1.0  0.42900  0.81000  0.87290  1.0000
  H   H110      1.0  0.07100  0.19000  0.37290  1.0000
  H   H111      1.0  0.92900  0.69000  0.12710  1.0000
  H   H112      1.0  0.57100  0.31000  0.62710  1.0000
  H   H113      1.0  0.57930  0.23500  0.08450  1.0000
  H   H114      1.0  0.92070  0.76500  0.58450  1.0000
  H   H115      1.0  0.07930  0.26500  0.91550  1.0000
  H   H116      1.0  0.42070  0.73500  0.41550  1.0000
  H   H117      1.0  0.42070  0.76500  0.91550  1.0000
  H   H118      1.0  0.07930  0.23500  0.41550  1.0000
  H   H119      1.0  0.92070  0.73500  0.08450  1.0000
  H   H120      1.0  0.57930  0.26500  0.58450  1.0000
