data_image0
_chemical_formula_structural       Zn8P8O40C8H4C4H4C8H4C4H4C12H4C4H4C8H4C4H4C4
_chemical_formula_sum              "Zn8 P8 O40 C56 H32"
_cell_length_a       9.869
_cell_length_b       17.101
_cell_length_c       17.32
_cell_angle_alpha    90
_cell_angle_beta     94.896
_cell_angle_gamma    90

_space_group_name_H-M_alt    "P 1"
_space_group_IT_number       1

loop_
  _space_group_symop_operation_xyz
  'x, y, z'

loop_
  _atom_site_type_symbol
  _atom_site_label
  _atom_site_symmetry_multiplicity
  _atom_site_fract_x
  _atom_site_fract_y
  _atom_site_fract_z
  _atom_site_occupancy
  Zn  Zn1       1.0  0.06281  0.96598  0.09974  1.0000
  Zn  Zn2       1.0  0.93719  0.46598  0.40026  1.0000
  Zn  Zn3       1.0  0.93719  0.03402  0.90026  1.0000
  Zn  Zn4       1.0  0.06281  0.53402  0.59974  1.0000
  Zn  Zn5       1.0  0.55016  0.10733  0.96320  1.0000
  Zn  Zn6       1.0  0.44984  0.60733  0.53680  1.0000
  Zn  Zn7       1.0  0.44984  0.89267  0.03680  1.0000
  Zn  Zn8       1.0  0.55016  0.39267  0.46320  1.0000
  P   P1        1.0  0.35393  0.06128  0.08767  1.0000
  P   P2        1.0  0.64607  0.56128  0.41233  1.0000
  P   P3        1.0  0.64607  0.93872  0.91233  1.0000
  P   P4        1.0  0.35393  0.43872  0.58767  1.0000
  P   P5        1.0  0.85354  0.10272  0.05420  1.0000
  P   P6        1.0  0.14646  0.60272  0.44580  1.0000
  P   P7        1.0  0.14646  0.89728  0.94580  1.0000
  P   P8        1.0  0.85354  0.39728  0.55420  1.0000
  O   O1        1.0  0.20490  0.04180  0.08580  1.0000
  O   O2        1.0  0.79510  0.54180  0.41420  1.0000
  O   O3        1.0  0.79510  0.95820  0.91420  1.0000
  O   O4        1.0  0.20490  0.45820  0.58580  1.0000
  O   O5        1.0  0.38370  0.11110  0.01750  1.0000
  O   O6        1.0  0.61630  0.61110  0.48250  1.0000
  O   O7        1.0  0.61630  0.88890  0.98250  1.0000
  O   O8        1.0  0.38370  0.38890  0.51750  1.0000
  O   O9        1.0  0.44770  0.99070  0.09680  1.0000
  O   O10       1.0  0.55230  0.49070  0.40320  1.0000
  O   O11       1.0  0.55230  0.00930  0.90320  1.0000
  O   O12       1.0  0.44770  0.50930  0.59680  1.0000
  O   O13       1.0  0.51420  0.32650  0.37270  1.0000
  O   O14       1.0  0.48580  0.82650  0.12730  1.0000
  O   O15       1.0  0.48580  0.67350  0.62730  1.0000
  O   O16       1.0  0.51420  0.17350  0.87270  1.0000
  O   O17       1.0  0.48220  0.22420  0.44530  1.0000
  O   O18       1.0  0.51780  0.72420  0.05470  1.0000
  O   O19       1.0  0.51780  0.77580  0.55470  1.0000
  O   O20       1.0  0.48220  0.27580  0.94530  1.0000
  O   O21       1.0  0.89780  0.02860  0.09780  1.0000
  O   O22       1.0  0.10220  0.52860  0.40220  1.0000
  O   O23       1.0  0.10220  0.97140  0.90220  1.0000
  O   O24       1.0  0.89780  0.47140  0.59780  1.0000
  O   O25       1.0  0.93000  0.11370  0.98170  1.0000
  O   O26       1.0  0.07000  0.61370  0.51830  1.0000
  O   O27       1.0  0.07000  0.88630  0.01830  1.0000
  O   O28       1.0  0.93000  0.38630  0.48170  1.0000
  O   O29       1.0  0.70140  0.10690  0.03950  1.0000
  O   O30       1.0  0.29860  0.60690  0.46050  1.0000
  O   O31       1.0  0.29860  0.89310  0.96050  1.0000
  O   O32       1.0  0.70140  0.39310  0.53950  1.0000
  O   O33       1.0  0.90060  0.41120  0.30070  1.0000
  O   O34       1.0  0.09940  0.91120  0.19930  1.0000
  O   O35       1.0  0.09940  0.58880  0.69930  1.0000
  O   O36       1.0  0.90060  0.08880  0.80070  1.0000
  O   O37       1.0  0.10270  0.35710  0.33010  1.0000
  O   O38       1.0  0.89730  0.85710  0.16990  1.0000
  O   O39       1.0  0.89730  0.64290  0.66990  1.0000
  O   O40       1.0  0.10270  0.14290  0.83010  1.0000
  C   C1        1.0  0.39170  0.12010  0.17350  1.0000
  C   C2        1.0  0.60830  0.62010  0.32650  1.0000
  C   C3        1.0  0.60830  0.87990  0.82650  1.0000
  C   C4        1.0  0.39170  0.37990  0.67350  1.0000
  C   C5        1.0  0.35690  0.09280  0.24450  1.0000
  C   C6        1.0  0.64310  0.59280  0.25550  1.0000
  C   C7        1.0  0.64310  0.90720  0.75550  1.0000
  C   C8        1.0  0.35690  0.40720  0.74450  1.0000
  H   H1        1.0  0.31310  0.04490  0.24770  1.0000
  H   H2        1.0  0.68690  0.54490  0.25230  1.0000
  H   H3        1.0  0.68690  0.95510  0.75230  1.0000
  H   H4        1.0  0.31310  0.45510  0.74770  1.0000
  C   C9        1.0  0.38800  0.13750  0.31100  1.0000
  C   C10       1.0  0.61200  0.63750  0.18900  1.0000
  C   C11       1.0  0.61200  0.86250  0.68900  1.0000
  C   C12       1.0  0.38800  0.36250  0.81100  1.0000
  H   H5        1.0  0.36580  0.11830  0.35860  1.0000
  H   H6        1.0  0.63420  0.61830  0.14140  1.0000
  H   H7        1.0  0.63420  0.88170  0.64140  1.0000
  H   H8        1.0  0.36580  0.38170  0.85860  1.0000
  C   C13       1.0  0.44990  0.20850  0.30820  1.0000
  C   C14       1.0  0.55010  0.70850  0.19180  1.0000
  C   C15       1.0  0.55010  0.79150  0.69180  1.0000
  C   C16       1.0  0.44990  0.29150  0.80820  1.0000
  C   C17       1.0  0.48250  0.23720  0.23790  1.0000
  C   C18       1.0  0.51750  0.73720  0.26210  1.0000
  C   C19       1.0  0.51750  0.76280  0.76210  1.0000
  C   C20       1.0  0.48250  0.26280  0.73790  1.0000
  H   H9        1.0  0.52380  0.28590  0.23510  1.0000
  H   H10       1.0  0.47620  0.78590  0.26490  1.0000
  H   H11       1.0  0.47620  0.71410  0.76490  1.0000
  H   H12       1.0  0.52380  0.21410  0.73510  1.0000
  C   C21       1.0  0.45340  0.19280  0.17060  1.0000
  C   C22       1.0  0.54660  0.69280  0.32940  1.0000
  C   C23       1.0  0.54660  0.80720  0.82940  1.0000
  C   C24       1.0  0.45340  0.30720  0.67060  1.0000
  H   H13       1.0  0.47590  0.21230  0.12330  1.0000
  H   H14       1.0  0.52410  0.71230  0.37670  1.0000
  H   H15       1.0  0.52410  0.78770  0.87670  1.0000
  H   H16       1.0  0.47590  0.28770  0.62330  1.0000
  C   C25       1.0  0.48440  0.25460  0.38160  1.0000
  C   C26       1.0  0.51560  0.75460  0.11840  1.0000
  C   C27       1.0  0.51560  0.74540  0.61840  1.0000
  C   C28       1.0  0.48440  0.24540  0.88160  1.0000
  C   C29       1.0  0.89880  0.18340  0.11810  1.0000
  C   C30       1.0  0.10120  0.68340  0.38190  1.0000
  C   C31       1.0  0.10120  0.81660  0.88190  1.0000
  C   C32       1.0  0.89880  0.31660  0.61810  1.0000
  C   C33       1.0  0.02420  0.18620  0.16090  1.0000
  C   C34       1.0  0.97580  0.68620  0.33910  1.0000
  C   C35       1.0  0.97580  0.81380  0.83910  1.0000
  C   C36       1.0  0.02420  0.31380  0.66090  1.0000
  H   H17       1.0  0.08810  0.14750  0.15370  1.0000
  H   H18       1.0  0.91190  0.64750  0.34630  1.0000
  H   H19       1.0  0.91190  0.85250  0.84630  1.0000
  H   H20       1.0  0.08810  0.35250  0.65370  1.0000
  C   C37       1.0  0.05620  0.24530  0.21400  1.0000
  C   C38       1.0  0.94380  0.74530  0.28600  1.0000
  C   C39       1.0  0.94380  0.75470  0.78600  1.0000
  C   C40       1.0  0.05620  0.25470  0.71400  1.0000
  H   H21       1.0  0.14140  0.24610  0.24150  1.0000
  H   H22       1.0  0.85860  0.74610  0.25850  1.0000
  H   H23       1.0  0.85860  0.75390  0.75850  1.0000
  H   H24       1.0  0.14140  0.25390  0.74150  1.0000
  C   C41       1.0  0.96300  0.30250  0.22630  1.0000
  C   C42       1.0  0.03700  0.80250  0.27370  1.0000
  C   C43       1.0  0.03700  0.69750  0.77370  1.0000
  C   C44       1.0  0.96300  0.19750  0.72630  1.0000
  C   C45       1.0  0.83790  0.30240  0.18270  1.0000
  C   C46       1.0  0.16210  0.80240  0.31730  1.0000
  C   C47       1.0  0.16210  0.69760  0.81730  1.0000
  C   C48       1.0  0.83790  0.19760  0.68270  1.0000
  H   H25       1.0  0.77530  0.34190  0.18950  1.0000
  H   H26       1.0  0.22470  0.84190  0.31050  1.0000
  H   H27       1.0  0.22470  0.65810  0.81050  1.0000
  H   H28       1.0  0.77530  0.15810  0.68950  1.0000
  C   C49       1.0  0.80640  0.24350  0.12920  1.0000
  C   C50       1.0  0.19360  0.74350  0.37080  1.0000
  C   C51       1.0  0.19360  0.75650  0.87080  1.0000
  C   C52       1.0  0.80640  0.25650  0.62920  1.0000
  H   H29       1.0  0.72250  0.24400  0.10030  1.0000
  H   H30       1.0  0.27750  0.74400  0.39970  1.0000
  H   H31       1.0  0.27750  0.75600  0.89970  1.0000
  H   H32       1.0  0.72250  0.25600  0.60030  1.0000
  C   C53       1.0  0.99280  0.36060  0.28970  1.0000
  C   C54       1.0  0.00720  0.86060  0.21030  1.0000
  C   C55       1.0  0.00720  0.63940  0.71030  1.0000
  C   C56       1.0  0.99280  0.13940  0.78970  1.0000
