data_image0
_chemical_formula_structural       Zn8P6O30C4H2C2H2C4H2C2H2C6H2C2H2C4H2C2H2C8H2C2H2C4H2C2H2
_chemical_formula_sum              "Zn8 P6 O30 C42 H24"
_cell_length_a       9.694
_cell_length_b       10.117
_cell_length_c       19.488
_cell_angle_alpha    90
_cell_angle_beta     104.04
_cell_angle_gamma    90

_space_group_name_H-M_alt    "P 1"
_space_group_IT_number       1

loop_
  _space_group_symop_operation_xyz
  'x, y, z'

loop_
  _atom_site_type_symbol
  _atom_site_label
  _atom_site_symmetry_multiplicity
  _atom_site_fract_x
  _atom_site_fract_y
  _atom_site_fract_z
  _atom_site_occupancy
  Zn  Zn1       1.0  0.50477  0.52127  0.77740  1.0000
  Zn  Zn2       1.0  0.49523  0.02127  0.22260  1.0000
  Zn  Zn3       1.0  0.15660  0.53640  0.80256  1.0000
  Zn  Zn4       1.0  0.84340  0.03640  0.19744  1.0000
  Zn  Zn5       1.0  0.99148  0.24023  0.77022  1.0000
  Zn  Zn6       1.0  0.00852  0.74023  0.22978  1.0000
  Zn  Zn7       1.0  0.18399  0.97281  0.73544  1.0000
  Zn  Zn8       1.0  0.81601  0.47281  0.26456  1.0000
  P   P1        1.0  0.84440  0.47730  0.82251  1.0000
  P   P2        1.0  0.15560  0.97730  0.17749  1.0000
  P   P3        1.0  0.31320  0.26330  0.78974  1.0000
  P   P4        1.0  0.68680  0.76330  0.21026  1.0000
  P   P5        1.0  0.72220  0.19760  0.31530  1.0000
  P   P6        1.0  0.27780  0.69760  0.68470  1.0000
  O   O1        1.0  0.70400  0.53970  0.78670  1.0000
  O   O2        1.0  0.29600  0.03970  0.21330  1.0000
  O   O3        1.0  0.96440  0.55750  0.80670  1.0000
  O   O4        1.0  0.03560  0.05750  0.19330  1.0000
  O   O5        1.0  0.84740  0.33480  0.80050  1.0000
  O   O6        1.0  0.15260  0.83480  0.19950  1.0000
  O   O7        1.0  0.98900  0.57810  0.17480  1.0000
  O   O8        1.0  0.01100  0.07810  0.82520  1.0000
  O   O9        1.0  0.82990  0.42100  0.16800  1.0000
  O   O10       1.0  0.17010  0.92100  0.83200  1.0000
  O   O11       1.0  0.17420  0.33880  0.79080  1.0000
  O   O12       1.0  0.82580  0.83880  0.20920  1.0000
  O   O13       1.0  0.27990  0.14220  0.74420  1.0000
  O   O14       1.0  0.72010  0.64220  0.25580  1.0000
  O   O15       1.0  0.41840  0.35150  0.76610  1.0000
  O   O16       1.0  0.58160  0.85150  0.23390  1.0000
  O   O17       1.0  0.72120  0.06860  0.10450  1.0000
  O   O18       1.0  0.27880  0.56860  0.89550  1.0000
  O   O19       1.0  0.51650  0.10290  0.13580  1.0000
  O   O20       1.0  0.48350  0.60290  0.86420  1.0000
  O   O21       1.0  0.02020  0.00910  0.65370  1.0000
  O   O22       1.0  0.97980  0.50910  0.34630  1.0000
  O   O23       1.0  0.94120  0.21180  0.67020  1.0000
  O   O24       1.0  0.05880  0.71180  0.32980  1.0000
  O   O25       1.0  0.71420  0.34240  0.30180  1.0000
  O   O26       1.0  0.28580  0.84240  0.69820  1.0000
  O   O27       1.0  0.57400  0.13760  0.30020  1.0000
  O   O28       1.0  0.42600  0.63760  0.69980  1.0000
  O   O29       1.0  0.81810  0.12690  0.27840  1.0000
  O   O30       1.0  0.18190  0.62690  0.72160  1.0000
  C   C1        1.0  0.86520  0.48110  0.91610  1.0000
  C   C2        1.0  0.13480  0.98110  0.08390  1.0000
  C   C3        1.0  0.78730  0.39480  0.94900  1.0000
  C   C4        1.0  0.21270  0.89480  0.05100  1.0000
  H   H1        1.0  0.72550  0.33400  0.92170  1.0000
  H   H2        1.0  0.27450  0.83400  0.07830  1.0000
  C   C5        1.0  0.80160  0.39900  0.02150  1.0000
  C   C6        1.0  0.19840  0.89900  0.97850  1.0000
  H   H3        1.0  0.74730  0.34250  0.04200  1.0000
  H   H4        1.0  0.25270  0.84250  0.95800  1.0000
  C   C7        1.0  0.89350  0.48440  0.06300  1.0000
  C   C8        1.0  0.10650  0.98440  0.93700  1.0000
  C   C9        1.0  0.97600  0.56530  0.03110  1.0000
  C   C10       1.0  0.02400  0.06530  0.96890  1.0000
  H   H5        1.0  0.04310  0.62100  0.05910  1.0000
  H   H6        1.0  0.95690  0.12100  0.94090  1.0000
  C   C11       1.0  0.96090  0.56490  0.95980  1.0000
  C   C12       1.0  0.03910  0.06490  0.04020  1.0000
  H   H7        1.0  0.01580  0.62200  0.94000  1.0000
  H   H8        1.0  0.98420  0.12200  0.06000  1.0000
  C   C13       1.0  0.90490  0.49690  0.14010  1.0000
  C   C14       1.0  0.09510  0.99690  0.85990  1.0000
  C   C15       1.0  0.39130  0.21320  0.87880  1.0000
  C   C16       1.0  0.60870  0.71320  0.12120  1.0000
  C   C17       1.0  0.33260  0.24910  0.93620  1.0000
  C   C18       1.0  0.66740  0.74910  0.06380  1.0000
  H   H9        1.0  0.24970  0.29910  0.92790  1.0000
  H   H10       1.0  0.75030  0.79910  0.07210  1.0000
  C   C19       1.0  0.39650  0.21120  0.00260  1.0000
  C   C20       1.0  0.60350  0.71120  0.99740  1.0000
  H   H11       1.0  0.35550  0.23390  0.03940  1.0000
  H   H12       1.0  0.64450  0.73390  0.96060  1.0000
  C   C21       1.0  0.52200  0.13910  0.01730  1.0000
  C   C22       1.0  0.47800  0.63910  0.98270  1.0000
  C   C23       1.0  0.58040  0.10650  0.96250  1.0000
  C   C24       1.0  0.41960  0.60650  0.03750  1.0000
  H   H13       1.0  0.66670  0.06180  0.97170  1.0000
  H   H14       1.0  0.33330  0.56180  0.02830  1.0000
  C   C25       1.0  0.51320  0.13900  0.89360  1.0000
  C   C26       1.0  0.48680  0.63900  0.10640  1.0000
  H   H15       1.0  0.55120  0.11010  0.85680  1.0000
  H   H16       1.0  0.44880  0.61010  0.14320  1.0000
  C   C27       1.0  0.59360  0.10130  0.09160  1.0000
  C   C28       1.0  0.40640  0.60130  0.90840  1.0000
  C   C29       1.0  0.96010  0.11460  0.63100  1.0000
  C   C30       1.0  0.03990  0.61460  0.36900  1.0000
  C   C31       1.0  0.90680  0.13440  0.55290  1.0000
  C   C32       1.0  0.09320  0.63440  0.44710  1.0000
  C   C33       1.0  0.90900  0.03700  0.50650  1.0000
  C   C34       1.0  0.09100  0.53700  0.49350  1.0000
  H   H17       1.0  0.94610  0.95500  0.52320  1.0000
  H   H18       1.0  0.05390  0.45500  0.47680  1.0000
  C   C35       1.0  0.85690  0.05560  0.43390  1.0000
  C   C36       1.0  0.14310  0.55560  0.56610  1.0000
  H   H19       1.0  0.86170  0.98720  0.40270  1.0000
  H   H20       1.0  0.13830  0.48720  0.59730  1.0000
  C   C37       1.0  0.79840  0.17560  0.40830  1.0000
  C   C38       1.0  0.20160  0.67560  0.59170  1.0000
  C   C39       1.0  0.79950  0.27610  0.45650  1.0000
  C   C40       1.0  0.20050  0.77610  0.54350  1.0000
  H   H21       1.0  0.76440  0.35870  0.43990  1.0000
  H   H22       1.0  0.23560  0.85870  0.56010  1.0000
  C   C41       1.0  0.85050  0.25830  0.52750  1.0000
  C   C42       1.0  0.14950  0.75830  0.47250  1.0000
  H   H23       1.0  0.84810  0.32720  0.55870  1.0000
  H   H24       1.0  0.15190  0.82720  0.44130  1.0000
