data_image0
_chemical_formula_structural       Ag4C4H4C8H4C8H4C20H4C4H4C4H4C4H8C4H8C4H8C4H8C4H4C4H4C4H4N16O20H4O4
_chemical_formula_sum              "Ag4 C76 H72 N16 O24"
_cell_length_a       32.051
_cell_length_b       10.63
_cell_length_c       9.49
_cell_angle_alpha    90
_cell_angle_beta     90
_cell_angle_gamma    90

_space_group_name_H-M_alt    "P 1"
_space_group_IT_number       1

loop_
  _space_group_symop_operation_xyz
  'x, y, z'

loop_
  _atom_site_type_symbol
  _atom_site_label
  _atom_site_symmetry_multiplicity
  _atom_site_fract_x
  _atom_site_fract_y
  _atom_site_fract_z
  _atom_site_occupancy
  Ag  Ag1       1.0  0.54033  0.97268  0.35940  1.0000
  Ag  Ag2       1.0  0.45967  0.02732  0.85940  1.0000
  Ag  Ag3       1.0  0.95967  0.47268  0.85940  1.0000
  Ag  Ag4       1.0  0.04033  0.52732  0.35940  1.0000
  C   C1        1.0  0.37441  0.01310  0.33790  1.0000
  C   C2        1.0  0.62559  0.98690  0.83790  1.0000
  C   C3        1.0  0.12559  0.51310  0.83790  1.0000
  C   C4        1.0  0.87441  0.48690  0.33790  1.0000
  H   H1        1.0  0.38970  0.06830  0.39360  1.0000
  H   H2        1.0  0.61030  0.93170  0.89360  1.0000
  H   H3        1.0  0.11030  0.56830  0.89360  1.0000
  H   H4        1.0  0.88970  0.43170  0.39360  1.0000
  C   C5        1.0  0.39480  0.92920  0.25360  1.0000
  C   C6        1.0  0.60520  0.07080  0.75360  1.0000
  C   C7        1.0  0.10520  0.42920  0.75360  1.0000
  C   C8        1.0  0.89480  0.57080  0.25360  1.0000
  C   C9        1.0  0.37169  0.84310  0.17300  1.0000
  C   C10       1.0  0.62831  0.15690  0.67300  1.0000
  C   C11       1.0  0.12831  0.34310  0.67300  1.0000
  C   C12       1.0  0.87169  0.65690  0.17300  1.0000
  H   H5        1.0  0.38540  0.78500  0.11620  1.0000
  H   H6        1.0  0.61460  0.21500  0.61620  1.0000
  H   H7        1.0  0.11460  0.28500  0.61620  1.0000
  H   H8        1.0  0.88540  0.71500  0.11620  1.0000
  C   C13       1.0  0.32849  0.84450  0.17790  1.0000
  C   C14       1.0  0.67151  0.15550  0.67790  1.0000
  C   C15       1.0  0.17151  0.34450  0.67790  1.0000
  C   C16       1.0  0.82849  0.65550  0.17790  1.0000
  C   C17       1.0  0.30806  0.93270  0.26180  1.0000
  C   C18       1.0  0.69194  0.06730  0.76180  1.0000
  C   C19       1.0  0.19194  0.43270  0.76180  1.0000
  C   C20       1.0  0.80806  0.56730  0.26180  1.0000
  H   H9        1.0  0.27910  0.93460  0.26400  1.0000
  H   H10       1.0  0.72090  0.06540  0.76400  1.0000
  H   H11       1.0  0.22090  0.43460  0.76400  1.0000
  H   H12       1.0  0.77910  0.56540  0.26400  1.0000
  C   C21       1.0  0.33058  0.01730  0.34160  1.0000
  C   C22       1.0  0.66942  0.98270  0.84160  1.0000
  C   C23       1.0  0.16942  0.51730  0.84160  1.0000
  C   C24       1.0  0.83058  0.48270  0.34160  1.0000
  C   C25       1.0  0.30866  0.11430  0.43080  1.0000
  C   C26       1.0  0.69134  0.88570  0.93080  1.0000
  C   C27       1.0  0.19134  0.61430  0.93080  1.0000
  C   C28       1.0  0.80866  0.38570  0.43080  1.0000
  C   C29       1.0  0.44245  0.92320  0.24580  1.0000
  C   C30       1.0  0.55755  0.07680  0.74580  1.0000
  C   C31       1.0  0.05755  0.42320  0.74580  1.0000
  C   C32       1.0  0.94245  0.57680  0.24580  1.0000
  C   C33       1.0  0.30519  0.74780  0.09440  1.0000
  C   C34       1.0  0.69481  0.25220  0.59440  1.0000
  C   C35       1.0  0.19481  0.24780  0.59440  1.0000
  C   C36       1.0  0.80519  0.75220  0.09440  1.0000
  C   C37       1.0  0.56061  0.26690  0.33460  1.0000
  C   C38       1.0  0.43939  0.73310  0.83460  1.0000
  C   C39       1.0  0.93939  0.76690  0.83460  1.0000
  C   C40       1.0  0.06061  0.23310  0.33460  1.0000
  H   H13       1.0  0.55780  0.27960  0.43100  1.0000
  H   H14       1.0  0.44220  0.72040  0.93100  1.0000
  H   H15       1.0  0.94220  0.77960  0.93100  1.0000
  H   H16       1.0  0.05780  0.22040  0.43100  1.0000
  C   C41       1.0  0.56222  0.17850  0.13410  1.0000
  C   C42       1.0  0.43778  0.82150  0.63410  1.0000
  C   C43       1.0  0.93778  0.67850  0.63410  1.0000
  C   C44       1.0  0.06222  0.32150  0.13410  1.0000
  H   H17       1.0  0.56060  0.11850  0.06290  1.0000
  H   H18       1.0  0.43940  0.88150  0.56290  1.0000
  H   H19       1.0  0.93940  0.61850  0.56290  1.0000
  H   H20       1.0  0.06060  0.38150  0.06290  1.0000
  C   C45       1.0  0.57005  0.35660  0.24020  1.0000
  C   C46       1.0  0.42995  0.64340  0.74020  1.0000
  C   C47       1.0  0.92995  0.85660  0.74020  1.0000
  C   C48       1.0  0.07005  0.14340  0.24020  1.0000
  H   H21       1.0  0.57480  0.44130  0.25870  1.0000
  H   H22       1.0  0.42520  0.55870  0.75870  1.0000
  H   H23       1.0  0.92520  0.94130  0.75870  1.0000
  H   H24       1.0  0.07480  0.05870  0.25870  1.0000
  C   C49       1.0  0.57791  0.36280  0.97630  1.0000
  C   C50       1.0  0.42209  0.63720  0.47630  1.0000
  C   C51       1.0  0.92209  0.86280  0.47630  1.0000
  C   C52       1.0  0.07791  0.13720  0.97630  1.0000
  H   H25       1.0  0.59180  0.30550  0.91210  1.0000
  H   H26       1.0  0.40820  0.69450  0.41210  1.0000
  H   H27       1.0  0.90820  0.80550  0.41210  1.0000
  H   H28       1.0  0.09180  0.19450  0.91210  1.0000
  H   H29       1.0  0.59600  0.43480  0.99040  1.0000
  H   H30       1.0  0.40400  0.56520  0.49040  1.0000
  H   H31       1.0  0.90400  0.93480  0.49040  1.0000
  H   H32       1.0  0.09600  0.06520  0.99040  1.0000
  C   C53       1.0  0.53779  0.40620  0.91080  1.0000
  C   C54       1.0  0.46221  0.59380  0.41080  1.0000
  C   C55       1.0  0.96221  0.90620  0.41080  1.0000
  C   C56       1.0  0.03779  0.09380  0.91080  1.0000
  H   H33       1.0  0.52490  0.46690  0.97350  1.0000
  H   H34       1.0  0.47510  0.53310  0.47350  1.0000
  H   H35       1.0  0.97510  0.96690  0.47350  1.0000
  H   H36       1.0  0.02490  0.03310  0.97350  1.0000
  H   H37       1.0  0.51910  0.33470  0.90400  1.0000
  H   H38       1.0  0.48090  0.66530  0.40400  1.0000
  H   H39       1.0  0.98090  0.83470  0.40400  1.0000
  H   H40       1.0  0.01910  0.16530  0.90400  1.0000
  C   C57       1.0  0.54168  0.46630  0.76380  1.0000
  C   C58       1.0  0.45832  0.53370  0.26380  1.0000
  C   C59       1.0  0.95832  0.96630  0.26380  1.0000
  C   C60       1.0  0.04168  0.03370  0.76380  1.0000
  H   H41       1.0  0.55900  0.41300  0.70480  1.0000
  H   H42       1.0  0.44100  0.58700  0.20480  1.0000
  H   H43       1.0  0.94100  0.91300  0.20480  1.0000
  H   H44       1.0  0.05900  0.08700  0.70480  1.0000
  H   H45       1.0  0.51420  0.47100  0.72100  1.0000
  H   H46       1.0  0.48580  0.52900  0.22100  1.0000
  H   H47       1.0  0.98580  0.97100  0.22100  1.0000
  H   H48       1.0  0.01420  0.02900  0.72100  1.0000
  C   C61       1.0  0.55960  0.59080  0.76870  1.0000
  C   C62       1.0  0.44040  0.40920  0.26870  1.0000
  C   C63       1.0  0.94040  0.09080  0.26870  1.0000
  C   C64       1.0  0.05960  0.90920  0.76870  1.0000
  H   H49       1.0  0.58790  0.58530  0.80430  1.0000
  H   H50       1.0  0.41210  0.41470  0.30430  1.0000
  H   H51       1.0  0.91210  0.08530  0.30430  1.0000
  H   H52       1.0  0.08790  0.91470  0.80430  1.0000
  H   H53       1.0  0.54360  0.64230  0.83360  1.0000
  H   H54       1.0  0.45640  0.35770  0.33360  1.0000
  H   H55       1.0  0.95640  0.14230  0.33360  1.0000
  H   H56       1.0  0.04360  0.85770  0.83360  1.0000
  C   C65       1.0  0.54649  0.76870  0.60010  1.0000
  C   C66       1.0  0.45351  0.23130  0.10010  1.0000
  C   C67       1.0  0.95351  0.26870  0.10010  1.0000
  C   C68       1.0  0.04649  0.73130  0.60010  1.0000
  H   H57       1.0  0.53390  0.82170  0.66540  1.0000
  H   H58       1.0  0.46610  0.17830  0.16540  1.0000
  H   H59       1.0  0.96610  0.32170  0.16540  1.0000
  H   H60       1.0  0.03390  0.67830  0.66540  1.0000
  C   C69       1.0  0.57222  0.69570  0.40890  1.0000
  C   C70       1.0  0.42778  0.30430  0.90890  1.0000
  C   C71       1.0  0.92778  0.19570  0.90890  1.0000
  C   C72       1.0  0.07222  0.80430  0.40890  1.0000
  H   H61       1.0  0.58070  0.68910  0.31550  1.0000
  H   H62       1.0  0.41930  0.31090  0.81550  1.0000
  H   H63       1.0  0.91930  0.18910  0.81550  1.0000
  H   H64       1.0  0.08070  0.81090  0.31550  1.0000
  C   C73       1.0  0.57678  0.60530  0.50850  1.0000
  C   C74       1.0  0.42322  0.39470  0.00850  1.0000
  C   C75       1.0  0.92322  0.10530  0.00850  1.0000
  C   C76       1.0  0.07678  0.89470  0.50850  1.0000
  H   H65       1.0  0.58890  0.52650  0.49670  1.0000
  H   H66       1.0  0.41110  0.47350  0.99670  1.0000
  H   H67       1.0  0.91110  0.02650  0.99670  1.0000
  H   H68       1.0  0.08890  0.97350  0.49670  1.0000
  N   N1        1.0  0.55574  0.15430  0.26770  1.0000
  N   N2        1.0  0.44426  0.84570  0.76770  1.0000
  N   N3        1.0  0.94426  0.65430  0.76770  1.0000
  N   N4        1.0  0.05574  0.34570  0.26770  1.0000
  N   N5        1.0  0.57138  0.29910  0.11210  1.0000
  N   N6        1.0  0.42862  0.70090  0.61210  1.0000
  N   N7        1.0  0.92862  0.79910  0.61210  1.0000
  N   N8        1.0  0.07138  0.20090  0.11210  1.0000
  N   N9        1.0  0.56018  0.65270  0.62840  1.0000
  N   N10       1.0  0.43982  0.34730  0.12840  1.0000
  N   N11       1.0  0.93982  0.15270  0.12840  1.0000
  N   N12       1.0  0.06018  0.84730  0.62840  1.0000
  N   N13       1.0  0.55324  0.79780  0.46710  1.0000
  N   N14       1.0  0.44676  0.20220  0.96710  1.0000
  N   N15       1.0  0.94676  0.29780  0.96710  1.0000
  N   N16       1.0  0.05324  0.70220  0.46710  1.0000
  O   O1        1.0  0.27031  0.10090  0.44780  1.0000
  O   O2        1.0  0.72969  0.89910  0.94780  1.0000
  O   O3        1.0  0.22969  0.60090  0.94780  1.0000
  O   O4        1.0  0.77031  0.39910  0.44780  1.0000
  O   O5        1.0  0.32871  0.19990  0.48360  1.0000
  O   O6        1.0  0.67129  0.80010  0.98360  1.0000
  O   O7        1.0  0.17129  0.69990  0.98360  1.0000
  O   O8        1.0  0.82871  0.30010  0.48360  1.0000
  O   O9        1.0  0.46186  0.98850  0.33380  1.0000
  O   O10       1.0  0.53814  0.01150  0.83380  1.0000
  O   O11       1.0  0.03814  0.48850  0.83380  1.0000
  O   O12       1.0  0.96186  0.51150  0.33380  1.0000
  O   O13       1.0  0.45781  0.85410  0.15590  1.0000
  O   O14       1.0  0.54219  0.14590  0.65590  1.0000
  O   O15       1.0  0.04219  0.35410  0.65590  1.0000
  O   O16       1.0  0.95781  0.64590  0.15590  1.0000
  O   O17       1.0  0.26531  0.75850  0.09890  1.0000
  O   O18       1.0  0.73469  0.24150  0.59890  1.0000
  O   O19       1.0  0.23469  0.25850  0.59890  1.0000
  O   O20       1.0  0.76531  0.74150  0.09890  1.0000
  H   H69       1.0  0.25460  0.70290  0.05100  1.0000
  H   H70       1.0  0.74540  0.29710  0.55100  1.0000
  H   H71       1.0  0.24540  0.20290  0.55100  1.0000
  H   H72       1.0  0.75460  0.79710  0.05100  1.0000
  O   O21       1.0  0.32336  0.66690  0.02880  1.0000
  O   O22       1.0  0.67664  0.33310  0.52880  1.0000
  O   O23       1.0  0.17664  0.16690  0.52880  1.0000
  O   O24       1.0  0.82336  0.83310  0.02880  1.0000
