data_image0
_chemical_formula_structural       Ru4F32O16N4C68H12
_chemical_formula_sum              "Ru4 F32 O16 N4 C68 H12"
_cell_length_a       10.561
_cell_length_b       14.315
_cell_length_c       16.18
_cell_angle_alpha    81.931
_cell_angle_beta     77.025
_cell_angle_gamma    78.491

_space_group_name_H-M_alt    "P 1"
_space_group_IT_number       1

loop_
  _space_group_symop_operation_xyz
  'x, y, z'

loop_
  _atom_site_type_symbol
  _atom_site_label
  _atom_site_symmetry_multiplicity
  _atom_site_fract_x
  _atom_site_fract_y
  _atom_site_fract_z
  _atom_site_occupancy
  Ru  Ru1       1.0  0.53057  0.06490  0.45573  1.0000
  Ru  Ru2       1.0  0.46943  0.93510  0.54427  1.0000
  Ru  Ru3       1.0  0.51041  0.49501  0.06958  1.0000
  Ru  Ru4       1.0  0.48959  0.50499  0.93042  1.0000
  F   F1        1.0  0.83090  0.81160  0.66310  1.0000
  F   F2        1.0  0.16910  0.18840  0.33690  1.0000
  F   F3        1.0  0.04670  0.80290  0.72250  1.0000
  F   F4        1.0  0.95330  0.19710  0.27750  1.0000
  F   F5        1.0  0.08710  0.11510  0.59450  1.0000
  F   F6        1.0  0.91290  0.88490  0.40550  1.0000
  F   F7        1.0  0.87010  0.12960  0.53880  1.0000
  F   F8        1.0  0.12990  0.87040  0.46120  1.0000
  F   F9        1.0  0.42810  0.78520  0.34030  1.0000
  F   F10       1.0  0.57190  0.21480  0.65970  1.0000
  F   F11       1.0  0.48670  0.66980  0.21820  1.0000
  F   F12       1.0  0.51330  0.33020  0.78180  1.0000
  F   F13       1.0  0.90560  0.75930  0.12500  1.0000
  F   F14       1.0  0.09440  0.24070  0.87500  1.0000
  F   F15       1.0  0.85040  0.87390  0.24990  1.0000
  F   F16       1.0  0.14960  0.12610  0.75010  1.0000
  F   F17       1.0  0.69140  0.18650  0.12730  1.0000
  F   F18       1.0  0.30860  0.81350  0.87270  1.0000
  F   F19       1.0  0.80750  0.00740  0.11180  1.0000
  F   F20       1.0  0.19250  0.99260  0.88820  1.0000
  F   F21       1.0  0.87920  0.06730  0.81440  1.0000
  F   F22       1.0  0.12080  0.93270  0.18560  1.0000
  F   F23       1.0  0.76440  0.24720  0.82710  1.0000
  F   F24       1.0  0.23560  0.75280  0.17290  1.0000
  F   F25       1.0  0.04960  0.54870  0.13190  1.0000
  F   F26       1.0  0.95040  0.45130  0.86810  1.0000
  F   F27       1.0  0.81320  0.49570  0.18020  1.0000
  F   F28       1.0  0.18680  0.50430  0.81980  1.0000
  F   F29       1.0  0.99200  0.19710  0.07350  1.0000
  F   F30       1.0  0.00800  0.80290  0.92650  1.0000
  F   F31       1.0  0.22970  0.24980  0.02520  1.0000
  F   F32       1.0  0.77030  0.75020  0.97480  1.0000
  O   O1        1.0  0.70250  0.04390  0.50130  1.0000
  O   O2        1.0  0.29750  0.95610  0.49870  1.0000
  O   O3        1.0  0.64200  0.91770  0.59000  1.0000
  O   O4        1.0  0.35800  0.08230  0.41000  1.0000
  O   O5        1.0  0.61680  0.98000  0.35740  1.0000
  O   O6        1.0  0.38320  0.02000  0.64260  1.0000
  O   O7        1.0  0.55490  0.85310  0.44450  1.0000
  O   O8        1.0  0.44510  0.14690  0.55550  1.0000
  O   O9        1.0  0.62230  0.35900  0.05650  1.0000
  O   O10       1.0  0.37770  0.64100  0.94350  1.0000
  O   O11       1.0  0.59800  0.36880  0.92090  1.0000
  O   O12       1.0  0.40200  0.63120  0.07910  1.0000
  O   O13       1.0  0.33520  0.44120  0.10660  1.0000
  O   O14       1.0  0.66480  0.55880  0.89340  1.0000
  O   O15       1.0  0.31630  0.44900  0.96980  1.0000
  O   O16       1.0  0.68370  0.55100  0.03020  1.0000
  N   N1        1.0  0.58330  0.20450  0.38050  1.0000
  N   N2        1.0  0.41670  0.79550  0.61950  1.0000
  N   N3        1.0  0.53010  0.46570  0.20880  1.0000
  N   N4        1.0  0.46990  0.53430  0.79120  1.0000
  C   C1        1.0  0.71920  0.97740  0.56020  1.0000
  C   C2        1.0  0.28080  0.02260  0.43980  1.0000
  C   C3        1.0  0.83890  0.97120  0.59710  1.0000
  C   C4        1.0  0.16110  0.02880  0.40290  1.0000
  C   C5        1.0  0.89000  0.88940  0.64620  1.0000
  C   C6        1.0  0.11000  0.11060  0.35380  1.0000
  C   C7        1.0  0.00340  0.88450  0.67680  1.0000
  C   C8        1.0  0.99660  0.11550  0.32320  1.0000
  C   C9        1.0  0.07160  0.95880  0.66210  1.0000
  C   C10       1.0  0.92840  0.04120  0.33790  1.0000
  C   C11       1.0  0.02310  0.04040  0.61430  1.0000
  C   C12       1.0  0.97690  0.95960  0.38570  1.0000
  C   C13       1.0  0.90970  0.04700  0.58300  1.0000
  C   C14       1.0  0.09030  0.95300  0.41700  1.0000
  C   C15       1.0  0.60150  0.89310  0.37360  1.0000
  C   C16       1.0  0.39850  0.10690  0.62640  1.0000
  C   C17       1.0  0.63870  0.83170  0.30020  1.0000
  C   C18       1.0  0.36130  0.16830  0.69980  1.0000
  C   C19       1.0  0.54670  0.77850  0.28970  1.0000
  C   C20       1.0  0.45330  0.22150  0.71030  1.0000
  C   C21       1.0  0.57730  0.71950  0.22530  1.0000
  C   C22       1.0  0.42270  0.28050  0.77470  1.0000
  C   C23       1.0  0.69600  0.71180  0.16990  1.0000
  C   C24       1.0  0.30400  0.28820  0.83010  1.0000
  C   C25       1.0  0.78570  0.76470  0.17850  1.0000
  C   C26       1.0  0.21430  0.23530  0.82150  1.0000
  C   C27       1.0  0.75940  0.82500  0.24260  1.0000
  C   C28       1.0  0.24060  0.17500  0.75740  1.0000
  C   C29       1.0  0.63860  0.32600  0.98610  1.0000
  C   C30       1.0  0.36140  0.67400  0.01390  1.0000
  C   C31       1.0  0.71380  0.22470  0.97800  1.0000
  C   C32       1.0  0.28620  0.77530  0.02200  1.0000
  C   C33       1.0  0.73340  0.15990  0.04800  1.0000
  C   C34       1.0  0.26660  0.84010  0.95200  1.0000
  C   C35       1.0  0.79640  0.06640  0.03900  1.0000
  C   C36       1.0  0.20360  0.93360  0.96100  1.0000
  C   C37       1.0  0.84070  0.03260  0.96350  1.0000
  C   C38       1.0  0.15930  0.96740  0.03650  1.0000
  C   C39       1.0  0.82980  0.09680  0.89250  1.0000
  C   C40       1.0  0.17020  0.90320  0.10750  1.0000
  C   C41       1.0  0.76810  0.19010  0.89970  1.0000
  C   C42       1.0  0.23190  0.80990  0.10030  1.0000
  C   C43       1.0  0.27750  0.43240  0.04830  1.0000
  C   C44       1.0  0.72250  0.56760  0.95170  1.0000
  C   C45       1.0  0.14510  0.40040  0.07710  1.0000
  C   C46       1.0  0.85490  0.59960  0.92290  1.0000
  C   C47       1.0  0.03530  0.46220  0.11730  1.0000
  C   C48       1.0  0.96470  0.53780  0.88270  1.0000
  C   C49       1.0  0.91490  0.43360  0.14140  1.0000
  C   C50       1.0  0.08510  0.56640  0.85860  1.0000
  C   C51       1.0  0.89650  0.34650  0.12590  1.0000
  C   C52       1.0  0.10350  0.65350  0.87410  1.0000
  C   C53       1.0  0.00470  0.28590  0.08670  1.0000
  C   C54       1.0  0.99530  0.71410  0.91330  1.0000
  C   C55       1.0  0.12680  0.31230  0.06210  1.0000
  C   C56       1.0  0.87320  0.68770  0.93790  1.0000
  C   C57       1.0  0.56320  0.28770  0.37120  1.0000
  C   C58       1.0  0.43680  0.71230  0.62880  1.0000
  C   C59       1.0  0.53880  0.38870  0.36090  1.0000
  C   C60       1.0  0.46120  0.61130  0.63910  1.0000
  C   C61       1.0  0.53400  0.43100  0.27570  1.0000
  C   C62       1.0  0.46600  0.56900  0.72430  1.0000
  C   C63       1.0  0.51890  0.44420  0.43070  1.0000
  C   C64       1.0  0.48110  0.55580  0.56930  1.0000
  C   C65       1.0  0.52920  0.40060  0.51430  1.0000
  C   C66       1.0  0.47080  0.59940  0.48570  1.0000
  C   C67       1.0  0.51340  0.45330  0.57960  1.0000
  C   C68       1.0  0.48660  0.54670  0.42040  1.0000
  H   H1        1.0  0.14920  0.95460  0.68380  1.0000
  H   H2        1.0  0.85080  0.04540  0.31620  1.0000
  H   H3        1.0  0.71590  0.67030  0.12610  1.0000
  H   H4        1.0  0.28410  0.32970  0.87390  1.0000
  H   H5        1.0  0.87830  0.96710  0.95870  1.0000
  H   H6        1.0  0.12170  0.03290  0.04130  1.0000
  H   H7        1.0  0.81200  0.32830  0.14170  1.0000
  H   H8        1.0  0.18800  0.67170  0.85830  1.0000
  H   H9        1.0  0.54770  0.33270  0.52400  1.0000
  H   H10       1.0  0.45230  0.66730  0.47600  1.0000
  H   H11       1.0  0.52380  0.42180  0.63400  1.0000
  H   H12       1.0  0.47620  0.57820  0.36600  1.0000
