data_image0
_chemical_formula_structural       U4O36N4C16H16C16H8C8H8
_chemical_formula_sum              "U4 O36 N4 C40 H32"
_cell_length_a       8.311
_cell_length_b       30.3678
_cell_length_c       11.7049
_cell_angle_alpha    90
_cell_angle_beta     94.782
_cell_angle_gamma    90

_space_group_name_H-M_alt    "P 1"
_space_group_IT_number       1

loop_
  _space_group_symop_operation_xyz
  'x, y, z'

loop_
  _atom_site_type_symbol
  _atom_site_label
  _atom_site_symmetry_multiplicity
  _atom_site_fract_x
  _atom_site_fract_y
  _atom_site_fract_z
  _atom_site_occupancy
  U   U1        1.0  0.00000  0.28236  0.25000  1.0000
  U   U2        1.0  0.50000  0.78236  0.25000  1.0000
  U   U3        1.0  0.00000  0.71764  0.75000  1.0000
  U   U4        1.0  0.50000  0.21764  0.75000  1.0000
  O   O1        1.0  0.91020  0.28254  0.10830  1.0000
  O   O2        1.0  0.08980  0.28254  0.39170  1.0000
  O   O3        1.0  0.41020  0.78254  0.10830  1.0000
  O   O4        1.0  0.58980  0.78254  0.39170  1.0000
  O   O5        1.0  0.08980  0.71746  0.89170  1.0000
  O   O6        1.0  0.91020  0.71746  0.60830  1.0000
  O   O7        1.0  0.58980  0.21746  0.89170  1.0000
  O   O8        1.0  0.41020  0.21746  0.60830  1.0000
  O   O9        1.0  0.73330  0.28115  0.32470  1.0000
  O   O10       1.0  0.26670  0.28115  0.17530  1.0000
  O   O11       1.0  0.23330  0.78115  0.32470  1.0000
  O   O12       1.0  0.76670  0.78115  0.17530  1.0000
  O   O13       1.0  0.26670  0.71885  0.67530  1.0000
  O   O14       1.0  0.73330  0.71885  0.82470  1.0000
  O   O15       1.0  0.76670  0.21885  0.67530  1.0000
  O   O16       1.0  0.23330  0.21885  0.82470  1.0000
  O   O17       1.0  0.84170  0.21721  0.28780  1.0000
  O   O18       1.0  0.15830  0.21721  0.21220  1.0000
  O   O19       1.0  0.34170  0.71721  0.28780  1.0000
  O   O20       1.0  0.65830  0.71721  0.21220  1.0000
  O   O21       1.0  0.15830  0.78279  0.71220  1.0000
  O   O22       1.0  0.84170  0.78279  0.78780  1.0000
  O   O23       1.0  0.65830  0.28279  0.71220  1.0000
  O   O24       1.0  0.34170  0.28279  0.78780  1.0000
  O   O25       1.0  0.88220  0.35853  0.28260  1.0000
  O   O26       1.0  0.11780  0.35853  0.21740  1.0000
  O   O27       1.0  0.38220  0.85853  0.28260  1.0000
  O   O28       1.0  0.61780  0.85853  0.21740  1.0000
  O   O29       1.0  0.11780  0.64147  0.71740  1.0000
  O   O30       1.0  0.88220  0.64147  0.78260  1.0000
  O   O31       1.0  0.61780  0.14147  0.71740  1.0000
  O   O32       1.0  0.38220  0.14147  0.78260  1.0000
  O   O33       1.0  0.00000  0.42112  0.25000  1.0000
  O   O34       1.0  0.50000  0.92112  0.25000  1.0000
  O   O35       1.0  0.00000  0.57888  0.75000  1.0000
  O   O36       1.0  0.50000  0.07888  0.75000  1.0000
  N   N1        1.0  0.00000  0.38147  0.25000  1.0000
  N   N2        1.0  0.50000  0.88147  0.25000  1.0000
  N   N3        1.0  0.00000  0.61853  0.75000  1.0000
  N   N4        1.0  0.50000  0.11853  0.75000  1.0000
  C   C1        1.0  0.72630  0.23925  0.32330  1.0000
  C   C2        1.0  0.27370  0.23925  0.17670  1.0000
  C   C3        1.0  0.22630  0.73925  0.32330  1.0000
  C   C4        1.0  0.77370  0.73925  0.17670  1.0000
  C   C5        1.0  0.27370  0.76075  0.67670  1.0000
  C   C6        1.0  0.72630  0.76075  0.82330  1.0000
  C   C7        1.0  0.77370  0.26075  0.67670  1.0000
  C   C8        1.0  0.22630  0.26075  0.82330  1.0000
  C   C9        1.0  0.58220  0.21625  0.36730  1.0000
  C   C10       1.0  0.41780  0.21625  0.13270  1.0000
  C   C11       1.0  0.08220  0.71625  0.36730  1.0000
  C   C12       1.0  0.91780  0.71625  0.13270  1.0000
  C   C13       1.0  0.41780  0.78375  0.63270  1.0000
  C   C14       1.0  0.58220  0.78375  0.86730  1.0000
  C   C15       1.0  0.91780  0.28375  0.63270  1.0000
  C   C16       1.0  0.08220  0.28375  0.86730  1.0000
  H   H1        1.0  0.48810  0.23630  0.35890  1.0000
  H   H2        1.0  0.51190  0.23630  0.14110  1.0000
  H   H3        1.0  0.98810  0.73630  0.35890  1.0000
  H   H4        1.0  0.01190  0.73630  0.14110  1.0000
  H   H5        1.0  0.51190  0.76370  0.64110  1.0000
  H   H6        1.0  0.48810  0.76370  0.85890  1.0000
  H   H7        1.0  0.01190  0.26370  0.64110  1.0000
  H   H8        1.0  0.98810  0.26370  0.85890  1.0000
  H   H9        1.0  0.60570  0.21010  0.45000  1.0000
  H   H10       1.0  0.39430  0.21010  0.05000  1.0000
  H   H11       1.0  0.10570  0.71010  0.45000  1.0000
  H   H12       1.0  0.89430  0.71010  0.05000  1.0000
  H   H13       1.0  0.39430  0.78990  0.55000  1.0000
  H   H14       1.0  0.60570  0.78990  0.95000  1.0000
  H   H15       1.0  0.89430  0.28990  0.55000  1.0000
  H   H16       1.0  0.10570  0.28990  0.95000  1.0000
  C   C17       1.0  0.53790  0.17340  0.30570  1.0000
  C   C18       1.0  0.46210  0.17340  0.19430  1.0000
  C   C19       1.0  0.03790  0.67340  0.30570  1.0000
  C   C20       1.0  0.96210  0.67340  0.19430  1.0000
  C   C21       1.0  0.46210  0.82660  0.69430  1.0000
  C   C22       1.0  0.53790  0.82660  0.80570  1.0000
  C   C23       1.0  0.96210  0.32660  0.69430  1.0000
  C   C24       1.0  0.03790  0.32660  0.80570  1.0000
  C   C25       1.0  0.57440  0.13337  0.35980  1.0000
  C   C26       1.0  0.42560  0.13337  0.14020  1.0000
  C   C27       1.0  0.07440  0.63337  0.35980  1.0000
  C   C28       1.0  0.92560  0.63337  0.14020  1.0000
  C   C29       1.0  0.42560  0.86663  0.64020  1.0000
  C   C30       1.0  0.57440  0.86663  0.85980  1.0000
  C   C31       1.0  0.92560  0.36663  0.64020  1.0000
  C   C32       1.0  0.07440  0.36663  0.85980  1.0000
  H   H17       1.0  0.62550  0.13320  0.43550  1.0000
  H   H18       1.0  0.37450  0.13320  0.06450  1.0000
  H   H19       1.0  0.12550  0.63320  0.43550  1.0000
  H   H20       1.0  0.87450  0.63320  0.06450  1.0000
  H   H21       1.0  0.37450  0.86680  0.56450  1.0000
  H   H22       1.0  0.62550  0.86680  0.93550  1.0000
  H   H23       1.0  0.87450  0.36680  0.56450  1.0000
  H   H24       1.0  0.12550  0.36680  0.93550  1.0000
  C   C33       1.0  0.53730  0.09380  0.30500  1.0000
  C   C34       1.0  0.46270  0.09380  0.19500  1.0000
  C   C35       1.0  0.03730  0.59380  0.30500  1.0000
  C   C36       1.0  0.96270  0.59380  0.19500  1.0000
  C   C37       1.0  0.46270  0.90620  0.69500  1.0000
  C   C38       1.0  0.53730  0.90620  0.80500  1.0000
  C   C39       1.0  0.96270  0.40620  0.69500  1.0000
  C   C40       1.0  0.03730  0.40620  0.80500  1.0000
  H   H25       1.0  0.56310  0.06670  0.34290  1.0000
  H   H26       1.0  0.43690  0.06670  0.15710  1.0000
  H   H27       1.0  0.06310  0.56670  0.34290  1.0000
  H   H28       1.0  0.93690  0.56670  0.15710  1.0000
  H   H29       1.0  0.43690  0.93330  0.65710  1.0000
  H   H30       1.0  0.56310  0.93330  0.84290  1.0000
  H   H31       1.0  0.93690  0.43330  0.65710  1.0000
  H   H32       1.0  0.06310  0.43330  0.84290  1.0000
