data_image0
_chemical_formula_structural       U4O36N4C12H4C4H4C4H4C4H4C4H8C8H8C4
_chemical_formula_sum              "U4 O36 N4 C40 H32"
_cell_length_a       14.8168
_cell_length_b       8.629
_cell_length_c       24.9157
_cell_angle_alpha    90
_cell_angle_beta     99.977
_cell_angle_gamma    90

_space_group_name_H-M_alt    "P 1"
_space_group_IT_number       1

loop_
  _space_group_symop_operation_xyz
  'x, y, z'

loop_
  _atom_site_type_symbol
  _atom_site_label
  _atom_site_symmetry_multiplicity
  _atom_site_fract_x
  _atom_site_fract_y
  _atom_site_fract_z
  _atom_site_occupancy
  U   U1        1.0  0.19727  0.12755  0.82945  1.0000
  U   U2        1.0  0.80273  0.62755  0.67055  1.0000
  U   U3        1.0  0.80273  0.87245  0.17055  1.0000
  U   U4        1.0  0.19727  0.37245  0.32945  1.0000
  O   O1        1.0  0.08950  0.07370  0.79262  1.0000
  O   O2        1.0  0.91050  0.57370  0.70738  1.0000
  O   O3        1.0  0.91050  0.92630  0.20738  1.0000
  O   O4        1.0  0.08950  0.42630  0.29262  1.0000
  O   O5        1.0  0.30610  0.17770  0.86594  1.0000
  O   O6        1.0  0.69390  0.67770  0.63406  1.0000
  O   O7        1.0  0.69390  0.82230  0.13406  1.0000
  O   O8        1.0  0.30610  0.32230  0.36594  1.0000
  O   O9        1.0  0.14280  0.39210  0.82844  1.0000
  O   O10       1.0  0.85720  0.89210  0.67156  1.0000
  O   O11       1.0  0.85720  0.60790  0.17156  1.0000
  O   O12       1.0  0.14280  0.10790  0.32844  1.0000
  O   O13       1.0  0.20750  0.32260  0.75913  1.0000
  O   O14       1.0  0.79250  0.82260  0.74087  1.0000
  O   O15       1.0  0.79250  0.67740  0.24087  1.0000
  O   O16       1.0  0.20750  0.17740  0.25913  1.0000
  O   O17       1.0  0.27040  0.00950  0.75847  1.0000
  O   O18       1.0  0.72960  0.50950  0.74153  1.0000
  O   O19       1.0  0.72960  0.99050  0.24153  1.0000
  O   O20       1.0  0.27040  0.49050  0.25847  1.0000
  O   O21       1.0  0.25070  0.86040  0.82732  1.0000
  O   O22       1.0  0.74930  0.36040  0.67268  1.0000
  O   O23       1.0  0.74930  0.13960  0.17268  1.0000
  O   O24       1.0  0.25070  0.63960  0.32732  1.0000
  O   O25       1.0  0.15690  0.96370  0.90546  1.0000
  O   O26       1.0  0.84310  0.46370  0.59454  1.0000
  O   O27       1.0  0.84310  0.03630  0.09454  1.0000
  O   O28       1.0  0.15690  0.53630  0.40546  1.0000
  O   O29       1.0  0.12820  0.20860  0.91094  1.0000
  O   O30       1.0  0.87180  0.70860  0.58906  1.0000
  O   O31       1.0  0.87180  0.79140  0.08906  1.0000
  O   O32       1.0  0.12820  0.29140  0.41094  1.0000
  O   O33       1.0  0.09130  0.04810  0.97169  1.0000
  O   O34       1.0  0.90870  0.54810  0.52831  1.0000
  O   O35       1.0  0.90870  0.95190  0.02831  1.0000
  O   O36       1.0  0.09130  0.45190  0.47169  1.0000
  N   N1        1.0  0.12350  0.07260  0.93090  1.0000
  N   N2        1.0  0.87650  0.57260  0.56910  1.0000
  N   N3        1.0  0.87650  0.92740  0.06910  1.0000
  N   N4        1.0  0.12350  0.42740  0.43090  1.0000
  C   C1        1.0  0.16440  0.60710  0.70260  1.0000
  C   C2        1.0  0.83560  0.10710  0.79740  1.0000
  C   C3        1.0  0.83560  0.39290  0.29740  1.0000
  C   C4        1.0  0.16440  0.89290  0.20260  1.0000
  C   C5        1.0  0.24660  0.68640  0.70130  1.0000
  C   C6        1.0  0.75340  0.18640  0.79870  1.0000
  C   C7        1.0  0.75340  0.31360  0.29870  1.0000
  C   C8        1.0  0.24660  0.81360  0.20130  1.0000
  C   C9        1.0  0.27270  0.71590  0.65080  1.0000
  C   C10       1.0  0.72730  0.21590  0.84920  1.0000
  C   C11       1.0  0.72730  0.28410  0.34920  1.0000
  C   C12       1.0  0.27270  0.78410  0.15080  1.0000
  H   H1        1.0  0.32730  0.77210  0.64940  1.0000
  H   H2        1.0  0.67270  0.27210  0.85060  1.0000
  H   H3        1.0  0.67270  0.22790  0.35060  1.0000
  H   H4        1.0  0.32730  0.72790  0.14940  1.0000
  C   C13       1.0  0.21960  0.66400  0.60300  1.0000
  C   C14       1.0  0.78040  0.16400  0.89700  1.0000
  C   C15       1.0  0.78040  0.33600  0.39700  1.0000
  C   C16       1.0  0.21960  0.83600  0.10300  1.0000
  H   H5        1.0  0.23850  0.68340  0.56900  1.0000
  H   H6        1.0  0.76150  0.18340  0.93100  1.0000
  H   H7        1.0  0.76150  0.31660  0.43100  1.0000
  H   H8        1.0  0.23850  0.81660  0.06900  1.0000
  C   C17       1.0  0.13880  0.58380  0.60440  1.0000
  C   C18       1.0  0.86120  0.08380  0.89560  1.0000
  C   C19       1.0  0.86120  0.41620  0.39560  1.0000
  C   C20       1.0  0.13880  0.91620  0.10440  1.0000
  H   H9        1.0  0.10280  0.54680  0.57160  1.0000
  H   H10       1.0  0.89720  0.04680  0.92840  1.0000
  H   H11       1.0  0.89720  0.45320  0.42840  1.0000
  H   H12       1.0  0.10280  0.95320  0.07160  1.0000
  C   C21       1.0  0.11150  0.55810  0.65370  1.0000
  C   C22       1.0  0.88850  0.05810  0.84630  1.0000
  C   C23       1.0  0.88850  0.44190  0.34630  1.0000
  C   C24       1.0  0.11150  0.94190  0.15370  1.0000
  H   H13       1.0  0.05540  0.50580  0.65450  1.0000
  H   H14       1.0  0.94460  0.00580  0.84550  1.0000
  H   H15       1.0  0.94460  0.49420  0.34550  1.0000
  H   H16       1.0  0.05540  0.99420  0.15450  1.0000
  C   C25       1.0  0.13230  0.57370  0.75560  1.0000
  C   C26       1.0  0.86770  0.07370  0.74440  1.0000
  C   C27       1.0  0.86770  0.42630  0.24440  1.0000
  C   C28       1.0  0.13230  0.92630  0.25560  1.0000
  H   H17       1.0  0.15390  0.65820  0.78150  1.0000
  H   H18       1.0  0.84610  0.15820  0.71850  1.0000
  H   H19       1.0  0.84610  0.34180  0.21850  1.0000
  H   H20       1.0  0.15390  0.84180  0.28150  1.0000
  H   H21       1.0  0.06450  0.57570  0.74890  1.0000
  H   H22       1.0  0.93550  0.07570  0.75110  1.0000
  H   H23       1.0  0.93550  0.42430  0.25110  1.0000
  H   H24       1.0  0.06450  0.92430  0.24890  1.0000
  C   C29       1.0  0.16360  0.42200  0.78200  1.0000
  C   C30       1.0  0.83640  0.92200  0.71800  1.0000
  C   C31       1.0  0.83640  0.57800  0.21800  1.0000
  C   C32       1.0  0.16360  0.07800  0.28200  1.0000
  C   C33       1.0  0.30970  0.73560  0.75360  1.0000
  C   C34       1.0  0.69030  0.23560  0.74640  1.0000
  C   C35       1.0  0.69030  0.26440  0.24640  1.0000
  C   C36       1.0  0.30970  0.76440  0.25360  1.0000
  H   H25       1.0  0.31690  0.64760  0.77950  1.0000
  H   H26       1.0  0.68310  0.14760  0.72050  1.0000
  H   H27       1.0  0.68310  0.35240  0.22050  1.0000
  H   H28       1.0  0.31690  0.85240  0.27950  1.0000
  H   H29       1.0  0.37090  0.76000  0.74500  1.0000
  H   H30       1.0  0.62910  0.26000  0.75500  1.0000
  H   H31       1.0  0.62910  0.24000  0.25500  1.0000
  H   H32       1.0  0.37090  0.74000  0.24500  1.0000
  C   C37       1.0  0.27480  0.87600  0.78120  1.0000
  C   C38       1.0  0.72520  0.37600  0.71880  1.0000
  C   C39       1.0  0.72520  0.12400  0.21880  1.0000
  C   C40       1.0  0.27480  0.62400  0.28120  1.0000
