data_image0
_chemical_formula_structural       U2O18N2C4H2C2H2C2H4C6H2C2H2C2H4C2
_chemical_formula_sum              "U2 O18 N2 C20 H16"
_cell_length_a       9.2335
_cell_length_b       10.8405
_cell_length_c       15.7348
_cell_angle_alpha    99.859
_cell_angle_beta     97.766
_cell_angle_gamma    102.38

_space_group_name_H-M_alt    "P 1"
_space_group_IT_number       1

loop_
  _space_group_symop_operation_xyz
  'x, y, z'

loop_
  _atom_site_type_symbol
  _atom_site_label
  _atom_site_symmetry_multiplicity
  _atom_site_fract_x
  _atom_site_fract_y
  _atom_site_fract_z
  _atom_site_occupancy
  U   U1        1.0  0.54601  0.50132  0.26070  1.0000
  U   U2        1.0  0.45399  0.49868  0.73930  1.0000
  O   O1        1.0  0.57450  0.51020  0.15302  1.0000
  O   O2        1.0  0.42550  0.48980  0.84698  1.0000
  O   O3        1.0  0.51790  0.48890  0.36773  1.0000
  O   O4        1.0  0.48210  0.51110  0.63227  1.0000
  O   O5        1.0  0.81910  0.57170  0.30980  1.0000
  O   O6        1.0  0.18090  0.42830  0.69020  1.0000
  O   O7        1.0  0.69650  0.72410  0.32040  1.0000
  O   O8        1.0  0.30350  0.27590  0.67960  1.0000
  O   O9        1.0  0.38120  0.64910  0.25310  1.0000
  O   O10       1.0  0.61880  0.35090  0.74690  1.0000
  O   O11       1.0  0.27340  0.44240  0.20490  1.0000
  O   O12       1.0  0.72660  0.55760  0.79510  1.0000
  O   O13       1.0  0.43990  0.26200  0.20910  1.0000
  O   O14       1.0  0.56010  0.73800  0.79090  1.0000
  O   O15       1.0  0.67980  0.32410  0.25710  1.0000
  O   O16       1.0  0.32020  0.67590  0.74290  1.0000
  O   O17       1.0  0.57580  0.11920  0.20670  1.0000
  O   O18       1.0  0.42420  0.88080  0.79330  1.0000
  N   N1        1.0  0.56530  0.23030  0.22420  1.0000
  N   N2        1.0  0.43470  0.76970  0.77580  1.0000
  C   C1        1.0  0.98260  0.89740  0.42700  1.0000
  C   C2        1.0  0.01740  0.10260  0.57300  1.0000
  C   C3        1.0  0.04290  0.88930  0.51180  1.0000
  C   C4        1.0  0.95710  0.11070  0.48820  1.0000
  H   H1        1.0  0.07280  0.81330  0.52090  1.0000
  H   H2        1.0  0.92720  0.18670  0.47910  1.0000
  C   C5        1.0  0.05990  0.98890  0.58240  1.0000
  C   C6        1.0  0.94010  0.01110  0.41760  1.0000
  H   H3        1.0  0.10160  0.98010  0.63900  1.0000
  H   H4        1.0  0.89840  0.01990  0.36100  1.0000
  C   C7        1.0  0.96910  0.78830  0.35130  1.0000
  C   C8        1.0  0.03090  0.21170  0.64870  1.0000
  H   H5        1.0  0.04850  0.74270  0.36540  1.0000
  H   H6        1.0  0.95150  0.25730  0.63460  1.0000
  H   H7        1.0  0.98910  0.82500  0.29940  1.0000
  H   H8        1.0  0.01090  0.17500  0.70060  1.0000
  C   C9        1.0  0.81910  0.69060  0.32700  1.0000
  C   C10       1.0  0.18090  0.30940  0.67300  1.0000
  C   C11       1.0  0.05890  0.54350  0.08980  1.0000
  C   C12       1.0  0.94110  0.45650  0.91020  1.0000
  C   C13       1.0  0.15270  0.52920  0.02970  1.0000
  C   C14       1.0  0.84730  0.47080  0.97030  1.0000
  H   H9        1.0  0.25840  0.54880  0.04990  1.0000
  H   H10       1.0  0.74160  0.45120  0.95010  1.0000
  C   C15       1.0  0.09770  0.48710  0.94050  1.0000
  C   C16       1.0  0.90230  0.51290  0.05950  1.0000
  H   H11       1.0  0.16490  0.47900  0.90030  1.0000
  H   H12       1.0  0.83510  0.52100  0.09970  1.0000
  C   C17       1.0  0.11720  0.59230  0.18710  1.0000
  C   C18       1.0  0.88280  0.40770  0.81290  1.0000
  H   H13       1.0  0.04090  0.55430  0.21990  1.0000
  H   H14       1.0  0.95910  0.44570  0.78010  1.0000
  H   H15       1.0  0.13180  0.68720  0.20130  1.0000
  H   H16       1.0  0.86820  0.31280  0.79870  1.0000
  C   C19       1.0  0.26690  0.55870  0.21710  1.0000
  C   C20       1.0  0.73310  0.44130  0.78290  1.0000
