data_image0
_chemical_formula_structural       U2O16C10H4C2H4C14H4C4H4C2H4C2H4C2H4O4C2U2H4C2O12C10H4C2H4C8H8
_chemical_formula_sum              "U4 O32 C60 H48"
_cell_length_a       12.3316
_cell_length_b       15.1317
_cell_length_c       16.3242
_cell_angle_alpha    94.057
_cell_angle_beta     103.24
_cell_angle_gamma    100.508

_space_group_name_H-M_alt    "P 1"
_space_group_IT_number       1

loop_
  _space_group_symop_operation_xyz
  'x, y, z'

loop_
  _atom_site_type_symbol
  _atom_site_label
  _atom_site_symmetry_multiplicity
  _atom_site_fract_x
  _atom_site_fract_y
  _atom_site_fract_z
  _atom_site_occupancy
  U   U1        1.0  0.30573  0.79972  0.66227  1.0000
  U   U2        1.0  0.69427  0.20028  0.33773  1.0000
  O   O1        1.0  0.43590  0.76650  0.66660  1.0000
  O   O2        1.0  0.56410  0.23350  0.33340  1.0000
  O   O3        1.0  0.17230  0.82850  0.65570  1.0000
  O   O4        1.0  0.82770  0.17150  0.34430  1.0000
  O   O5        1.0  0.30760  0.74840  0.80120  1.0000
  O   O6        1.0  0.69240  0.25160  0.19880  1.0000
  O   O7        1.0  0.21800  0.64680  0.69220  1.0000
  O   O8        1.0  0.78200  0.35320  0.30780  1.0000
  O   O9        1.0  0.22280  0.69680  0.52780  1.0000
  O   O10       1.0  0.77720  0.30320  0.47220  1.0000
  O   O11       1.0  0.29610  0.83750  0.51480  1.0000
  O   O12       1.0  0.70390  0.16250  0.48520  1.0000
  O   O13       1.0  0.39160  0.96200  0.65880  1.0000
  O   O14       1.0  0.60840  0.03800  0.34120  1.0000
  O   O15       1.0  0.39120  0.91760  0.78400  1.0000
  O   O16       1.0  0.60880  0.08240  0.21600  1.0000
  C   C1        1.0  0.24570  0.67230  0.77320  1.0000
  C   C2        1.0  0.75430  0.32770  0.22680  1.0000
  C   C3        1.0  0.24400  0.75960  0.48170  1.0000
  C   C4        1.0  0.75600  0.24040  0.51830  1.0000
  C   C5        1.0  0.19950  0.61170  0.83250  1.0000
  C   C6        1.0  0.80050  0.38830  0.16750  1.0000
  C   C7        1.0  0.20000  0.74040  0.38570  1.0000
  C   C8        1.0  0.80000  0.25960  0.61430  1.0000
  C   C9        1.0  0.27050  0.63730  0.92330  1.0000
  C   C10       1.0  0.72950  0.36270  0.07670  1.0000
  H   H1        1.0  0.19940  0.54800  0.81390  1.0000
  H   H2        1.0  0.80060  0.45200  0.18610  1.0000
  H   H3        1.0  0.11990  0.61680  0.82990  1.0000
  H   H4        1.0  0.88010  0.38320  0.17010  1.0000
  C   C11       1.0  0.28300  0.78630  0.33870  1.0000
  C   C12       1.0  0.71700  0.21370  0.66130  1.0000
  H   H5        1.0  0.18420  0.67420  0.36920  1.0000
  H   H6        1.0  0.81580  0.32580  0.63080  1.0000
  H   H7        1.0  0.12740  0.76120  0.36850  1.0000
  H   H8        1.0  0.87260  0.23880  0.63150  1.0000
  C   C13       1.0  0.37620  0.61170  0.94980  1.0000
  C   C14       1.0  0.62380  0.38830  0.05020  1.0000
  C   C15       1.0  0.23230  0.68680  0.98210  1.0000
  C   C16       1.0  0.76770  0.31320  0.01790  1.0000
  C   C17       1.0  0.39450  0.77720  0.35920  1.0000
  C   C18       1.0  0.60550  0.22280  0.64080  1.0000
  C   C19       1.0  0.25250  0.84170  0.27810  1.0000
  C   C20       1.0  0.74750  0.15830  0.72190  1.0000
  C   C21       1.0  0.43820  0.63790  0.03260  1.0000
  C   C22       1.0  0.56180  0.36210  0.96740  1.0000
  C   C23       1.0  0.41660  0.55540  0.88820  1.0000
  C   C24       1.0  0.58340  0.44460  0.11180  1.0000
  C   C25       1.0  0.29690  0.71240  0.06520  1.0000
  C   C26       1.0  0.70310  0.28760  0.93480  1.0000
  H   H9        1.0  0.16060  0.70350  0.96520  1.0000
  H   H10       1.0  0.83940  0.29650  0.03480  1.0000
  H   H11       1.0  0.41790  0.74080  0.40230  1.0000
  H   H12       1.0  0.58210  0.25920  0.59770  1.0000
  C   C27       1.0  0.47340  0.81880  0.31940  1.0000
  C   C28       1.0  0.52660  0.18120  0.68060  1.0000
  C   C29       1.0  0.33160  0.88620  0.23900  1.0000
  C   C30       1.0  0.66840  0.11380  0.76100  1.0000
  H   H13       1.0  0.17610  0.84960  0.26280  1.0000
  H   H14       1.0  0.82390  0.15040  0.73720  1.0000
  H   H15       1.0  0.50970  0.62100  0.05030  1.0000
  H   H16       1.0  0.49030  0.37900  0.94970  1.0000
  C   C31       1.0  0.40030  0.68770  0.09100  1.0000
  C   C32       1.0  0.59970  0.31230  0.90900  1.0000
  H   H17       1.0  0.49490  0.54880  0.91480  1.0000
  H   H18       1.0  0.50510  0.45120  0.08520  1.0000
  H   H19       1.0  0.41970  0.58770  0.83780  1.0000
  H   H20       1.0  0.58030  0.41230  0.16220  1.0000
  C   C33       1.0  0.34220  0.46260  0.85980  1.0000
  C   C34       1.0  0.65780  0.53740  0.14020  1.0000
  H   H21       1.0  0.26950  0.74690  0.10400  1.0000
  H   H22       1.0  0.73050  0.25310  0.89600  1.0000
  H   H23       1.0  0.54850  0.80760  0.33260  1.0000
  H   H24       1.0  0.45150  0.19240  0.66740  1.0000
  C   C35       1.0  0.44390  0.87670  0.26050  1.0000
  C   C36       1.0  0.55610  0.12330  0.73950  1.0000
  H   H25       1.0  0.30850  0.92380  0.19690  1.0000
  H   H26       1.0  0.69150  0.07620  0.80310  1.0000
  H   H27       1.0  0.44490  0.70440  0.14760  1.0000
  H   H28       1.0  0.55510  0.29560  0.85240  1.0000
  O   O17       1.0  0.33830  0.42120  0.79000  1.0000
  O   O18       1.0  0.66170  0.57880  0.21000  1.0000
  O   O19       1.0  0.28020  0.42600  0.90640  1.0000
  O   O20       1.0  0.71980  0.57400  0.09360  1.0000
  C   C37       1.0  0.53060  0.92580  0.21830  1.0000
  C   C38       1.0  0.46940  0.07420  0.78170  1.0000
  U   U3        1.0  0.18389  0.29554  0.79796  1.0000
  U   U4        1.0  0.81611  0.70446  0.20204  1.0000
  H   H29       1.0  0.59090  0.89070  0.21860  1.0000
  H   H30       1.0  0.40910  0.10930  0.78140  1.0000
  H   H31       1.0  0.49300  0.92930  0.15850  1.0000
  H   H32       1.0  0.50700  0.07070  0.84150  1.0000
  C   C39       1.0  0.58400  0.01970  0.26120  1.0000
  C   C40       1.0  0.41600  0.98030  0.73880  1.0000
  O   O21       1.0  0.28280  0.23460  0.84940  1.0000
  O   O22       1.0  0.71720  0.76540  0.15060  1.0000
  O   O23       1.0  0.08520  0.35840  0.74720  1.0000
  O   O24       1.0  0.91480  0.64160  0.25280  1.0000
  O   O25       1.0  0.09610  0.29690  0.92010  1.0000
  O   O26       1.0  0.90390  0.70310  0.07990  1.0000
  O   O27       1.0  0.03160  0.17710  0.82600  1.0000
  O   O28       1.0  0.96840  0.82290  0.17400  1.0000
  O   O29       1.0  0.10910  0.17660  0.68020  1.0000
  O   O30       1.0  0.89090  0.82340  0.31980  1.0000
  O   O31       1.0  0.25680  0.27600  0.67140  1.0000
  O   O32       1.0  0.74320  0.72400  0.32860  1.0000
  C   C41       1.0  0.03450  0.21970  0.89680  1.0000
  C   C42       1.0  0.96550  0.78030  0.10320  1.0000
  C   C43       1.0  0.18230  0.20720  0.64040  1.0000
  C   C44       1.0  0.81770  0.79280  0.35960  1.0000
  C   C45       1.0  0.96210  0.17620  0.95290  1.0000
  C   C46       1.0  0.03790  0.82380  0.04710  1.0000
  C   C47       1.0  0.18640  0.15410  0.55950  1.0000
  C   C48       1.0  0.81360  0.84590  0.44050  1.0000
  C   C49       1.0  0.98120  0.08370  0.97530  1.0000
  C   C50       1.0  0.01880  0.91630  0.02470  1.0000
  H   H33       1.0  0.97770  0.21720  0.00610  1.0000
  H   H34       1.0  0.02230  0.78280  0.99390  1.0000
  H   H35       1.0  0.88100  0.17050  0.92380  1.0000
  H   H36       1.0  0.11900  0.82950  0.07620  1.0000
  C   C51       1.0  0.08940  0.07470  0.52920  1.0000
  C   C52       1.0  0.91060  0.92530  0.47080  1.0000
  H   H37       1.0  0.18570  0.19490  0.51460  1.0000
  H   H38       1.0  0.81430  0.80510  0.48540  1.0000
  H   H39       1.0  0.25880  0.13240  0.56890  1.0000
  H   H40       1.0  0.74120  0.86760  0.43110  1.0000
  C   C53       1.0  0.89620  0.01150  0.96040  1.0000
  C   C54       1.0  0.10380  0.98850  0.03960  1.0000
  C   C55       1.0  0.08640  0.07230  0.01740  1.0000
  C   C56       1.0  0.91360  0.92770  0.98260  1.0000
  C   C57       1.0  0.98480  0.08390  0.48520  1.0000
  C   C58       1.0  0.01520  0.91610  0.51480  1.0000
  C   C59       1.0  0.10450  0.98820  0.54390  1.0000
  C   C60       1.0  0.89550  0.01180  0.45610  1.0000
  H   H41       1.0  0.82150  0.01790  0.93370  1.0000
  H   H42       1.0  0.17850  0.98210  0.06630  1.0000
  H   H43       1.0  0.14840  0.12280  0.03160  1.0000
  H   H44       1.0  0.85160  0.87720  0.96840  1.0000
  H   H45       1.0  0.97330  0.14280  0.47420  1.0000
  H   H46       1.0  0.02670  0.85720  0.52580  1.0000
  H   H47       1.0  0.17630  0.97890  0.57410  1.0000
  H   H48       1.0  0.82370  0.02110  0.42590  1.0000
