data_image0
_chemical_formula_structural       Zn2C2H2C4H2C4H2C4H2C6H2C2H2C4H2C2H2C4O12H2O4
_chemical_formula_sum              "Zn2 C32 H18 O16"
_cell_length_a       12.607
_cell_length_b       12.772
_cell_length_c       12.9
_cell_angle_alpha    65.96
_cell_angle_beta     73.4
_cell_angle_gamma    71.46

_space_group_name_H-M_alt    "P 1"
_space_group_IT_number       1

loop_
  _space_group_symop_operation_xyz
  'x, y, z'

loop_
  _atom_site_type_symbol
  _atom_site_label
  _atom_site_symmetry_multiplicity
  _atom_site_fract_x
  _atom_site_fract_y
  _atom_site_fract_z
  _atom_site_occupancy
  Zn  Zn1       1.0  0.07337  0.64564  0.41045  1.0000
  Zn  Zn2       1.0  0.92663  0.35436  0.58955  1.0000
  C   C1        1.0  0.98120  0.05020  0.08190  1.0000
  C   C2        1.0  0.01880  0.94980  0.91810  1.0000
  H   H1        1.0  0.96870  0.08430  0.13700  1.0000
  H   H2        1.0  0.03130  0.91570  0.86300  1.0000
  C   C3        1.0  0.01790  0.92940  0.11080  1.0000
  C   C4        1.0  0.98210  0.07060  0.88920  1.0000
  C   C5        1.0  0.03690  0.88050  0.02760  1.0000
  C   C6        1.0  0.96310  0.11950  0.97240  1.0000
  H   H3        1.0  0.06240  0.79930  0.04620  1.0000
  H   H4        1.0  0.93760  0.20070  0.95380  1.0000
  C   C7        1.0  0.03460  0.85050  0.23030  1.0000
  C   C8        1.0  0.96540  0.14950  0.76970  1.0000
  C   C9        1.0  0.43380  0.46130  0.58920  1.0000
  C   C10       1.0  0.56620  0.53870  0.41080  1.0000
  H   H5        1.0  0.39100  0.43030  0.66150  1.0000
  H   H6        1.0  0.60900  0.56970  0.33850  1.0000
  C   C11       1.0  0.38170  0.53590  0.51400  1.0000
  C   C12       1.0  0.61830  0.46410  0.48600  1.0000
  C   C13       1.0  0.44830  0.58160  0.42320  1.0000
  C   C14       1.0  0.55170  0.41840  0.57680  1.0000
  H   H7        1.0  0.41780  0.64540  0.36340  1.0000
  H   H8        1.0  0.58220  0.35460  0.63660  1.0000
  C   C15       1.0  0.25360  0.57670  0.52450  1.0000
  C   C16       1.0  0.74640  0.42330  0.47550  1.0000
  C   C17       1.0  0.86730  0.61280  0.56760  1.0000
  C   C18       1.0  0.13270  0.38720  0.43240  1.0000
  C   C19       1.0  0.67420  0.58480  0.67250  1.0000
  C   C20       1.0  0.32580  0.41520  0.32750  1.0000
  H   H9        1.0  0.70470  0.50460  0.70530  1.0000
  H   H10       1.0  0.29530  0.49540  0.29470  1.0000
  C   C21       1.0  0.55460  0.63210  0.69420  1.0000
  C   C22       1.0  0.44540  0.36790  0.30580  1.0000
  H   H11       1.0  0.50670  0.58100  0.73780  1.0000
  H   H12       1.0  0.49330  0.41900  0.26220  1.0000
  C   C23       1.0  0.51060  0.74510  0.65440  1.0000
  C   C24       1.0  0.48940  0.25490  0.34560  1.0000
  C   C25       1.0  0.57890  0.81920  0.58850  1.0000
  C   C26       1.0  0.42110  0.18080  0.41150  1.0000
  H   H13       1.0  0.54750  0.89970  0.55990  1.0000
  H   H14       1.0  0.45250  0.10030  0.44010  1.0000
  C   C27       1.0  0.69510  0.77780  0.56240  1.0000
  C   C28       1.0  0.30490  0.22220  0.43760  1.0000
  H   H15       1.0  0.74090  0.83070  0.51730  1.0000
  H   H16       1.0  0.25910  0.16930  0.48270  1.0000
  C   C29       1.0  0.74310  0.66050  0.60210  1.0000
  C   C30       1.0  0.25690  0.33950  0.39790  1.0000
  C   C31       1.0  0.38310  0.78900  0.67810  1.0000
  C   C32       1.0  0.61690  0.21100  0.32190  1.0000
  O   O1        1.0  0.90880  0.50580  0.60790  1.0000
  O   O2        1.0  0.09120  0.49420  0.39210  1.0000
  O   O3        1.0  0.06950  0.74190  0.24880  1.0000
  O   O4        1.0  0.93050  0.25810  0.75120  1.0000
  O   O5        1.0  0.01120  0.89390  0.30720  1.0000
  O   O6        1.0  0.98880  0.10610  0.69280  1.0000
  O   O7        1.0  0.21670  0.64310  0.43670  1.0000
  O   O8        1.0  0.78330  0.35690  0.56330  1.0000
  O   O9        1.0  0.19420  0.54040  0.61340  1.0000
  O   O10       1.0  0.80580  0.45960  0.38660  1.0000
  O   O11       1.0  0.35080  0.89860  0.63600  1.0000
  O   O12       1.0  0.64920  0.10140  0.36400  1.0000
  H   H17       1.0  0.28120  0.91780  0.65090  1.0000
  H   H18       1.0  0.71880  0.08220  0.34910  1.0000
  O   O13       1.0  0.32480  0.71120  0.74080  1.0000
  O   O14       1.0  0.67520  0.28880  0.25920  1.0000
  O   O15       1.0  0.92320  0.68630  0.49830  1.0000
  O   O16       1.0  0.07680  0.31370  0.50170  1.0000
