data_image0
_chemical_formula_structural       Mn4S16O40C40H16
_chemical_formula_sum              "Mn4 S16 O40 C40 H16"
_cell_length_a       9.034
_cell_length_b       11.188
_cell_length_c       25.73
_cell_angle_alpha    90
_cell_angle_beta     93.3
_cell_angle_gamma    90

_space_group_name_H-M_alt    "P 1"
_space_group_IT_number       1

loop_
  _space_group_symop_operation_xyz
  'x, y, z'

loop_
  _atom_site_type_symbol
  _atom_site_label
  _atom_site_symmetry_multiplicity
  _atom_site_fract_x
  _atom_site_fract_y
  _atom_site_fract_z
  _atom_site_occupancy
  Mn  Mn1       1.0  0.50000  0.26861  0.25000  1.0000
  Mn  Mn2       1.0  0.00000  0.76861  0.25000  1.0000
  Mn  Mn3       1.0  0.50000  0.73139  0.75000  1.0000
  Mn  Mn4       1.0  0.00000  0.23139  0.75000  1.0000
  S   S1        1.0  0.81781  0.18088  0.07746  1.0000
  S   S2        1.0  0.18219  0.18088  0.42254  1.0000
  S   S3        1.0  0.31781  0.68088  0.07746  1.0000
  S   S4        1.0  0.68219  0.68088  0.42254  1.0000
  S   S5        1.0  0.18219  0.81912  0.92254  1.0000
  S   S6        1.0  0.81781  0.81912  0.57746  1.0000
  S   S7        1.0  0.68219  0.31912  0.92254  1.0000
  S   S8        1.0  0.31781  0.31912  0.57746  1.0000
  S   S9        1.0  0.54813  0.30711  0.03623  1.0000
  S   S10       1.0  0.45187  0.30711  0.46377  1.0000
  S   S11       1.0  0.04813  0.80711  0.03623  1.0000
  S   S12       1.0  0.95187  0.80711  0.46377  1.0000
  S   S13       1.0  0.45187  0.69289  0.96377  1.0000
  S   S14       1.0  0.54813  0.69289  0.53623  1.0000
  S   S15       1.0  0.95187  0.19289  0.96377  1.0000
  S   S16       1.0  0.04813  0.19289  0.53623  1.0000
  O   O1        1.0  0.83030  0.10120  0.17979  1.0000
  O   O2        1.0  0.16970  0.10120  0.32021  1.0000
  O   O3        1.0  0.33030  0.60120  0.17979  1.0000
  O   O4        1.0  0.66970  0.60120  0.32021  1.0000
  O   O5        1.0  0.16970  0.89880  0.82021  1.0000
  O   O6        1.0  0.83030  0.89880  0.67979  1.0000
  O   O7        1.0  0.66970  0.39880  0.82021  1.0000
  O   O8        1.0  0.33030  0.39880  0.67979  1.0000
  O   O9        1.0  0.70800  0.25230  0.21461  1.0000
  O   O10       1.0  0.29200  0.25230  0.28539  1.0000
  O   O11       1.0  0.20800  0.75230  0.21461  1.0000
  O   O12       1.0  0.79200  0.75230  0.28539  1.0000
  O   O13       1.0  0.29200  0.74770  0.78539  1.0000
  O   O14       1.0  0.70800  0.74770  0.71461  1.0000
  O   O15       1.0  0.79200  0.24770  0.78539  1.0000
  O   O16       1.0  0.20800  0.24770  0.71461  1.0000
  O   O17       1.0  0.40160  0.27600  0.17405  1.0000
  O   O18       1.0  0.59840  0.27600  0.32595  1.0000
  O   O19       1.0  0.90160  0.77600  0.17405  1.0000
  O   O20       1.0  0.09840  0.77600  0.32595  1.0000
  O   O21       1.0  0.59840  0.72400  0.82595  1.0000
  O   O22       1.0  0.40160  0.72400  0.67405  1.0000
  O   O23       1.0  0.09840  0.22400  0.82595  1.0000
  O   O24       1.0  0.90160  0.22400  0.67405  1.0000
  O   O25       1.0  0.32070  0.34650  0.09715  1.0000
  O   O26       1.0  0.67930  0.34650  0.40285  1.0000
  O   O27       1.0  0.82070  0.84650  0.09715  1.0000
  O   O28       1.0  0.17930  0.84650  0.40285  1.0000
  O   O29       1.0  0.67930  0.65350  0.90285  1.0000
  O   O30       1.0  0.32070  0.65350  0.59715  1.0000
  O   O31       1.0  0.17930  0.15350  0.90285  1.0000
  O   O32       1.0  0.82070  0.15350  0.59715  1.0000
  O   O33       1.0  0.50000  0.46580  0.25000  1.0000
  O   O34       1.0  0.00000  0.96580  0.25000  1.0000
  O   O35       1.0  0.50000  0.53420  0.75000  1.0000
  O   O36       1.0  0.00000  0.03420  0.75000  1.0000
  O   O37       1.0  0.50000  0.07060  0.25000  1.0000
  O   O38       1.0  0.00000  0.57060  0.25000  1.0000
  O   O39       1.0  0.50000  0.92940  0.75000  1.0000
  O   O40       1.0  0.00000  0.42940  0.75000  1.0000
  C   C1        1.0  0.68490  0.22180  0.12260  1.0000
  C   C2        1.0  0.31510  0.22180  0.37740  1.0000
  C   C3        1.0  0.18490  0.72180  0.12260  1.0000
  C   C4        1.0  0.81510  0.72180  0.37740  1.0000
  C   C5        1.0  0.31510  0.77820  0.87740  1.0000
  C   C6        1.0  0.68490  0.77820  0.62260  1.0000
  C   C7        1.0  0.81510  0.27820  0.87740  1.0000
  C   C8        1.0  0.18490  0.27820  0.62260  1.0000
  C   C9        1.0  0.56040  0.27350  0.10360  1.0000
  C   C10       1.0  0.43960  0.27350  0.39640  1.0000
  C   C11       1.0  0.06040  0.77350  0.10360  1.0000
  C   C12       1.0  0.93960  0.77350  0.39640  1.0000
  C   C13       1.0  0.43960  0.72650  0.89640  1.0000
  C   C14       1.0  0.56040  0.72650  0.60360  1.0000
  C   C15       1.0  0.93960  0.22650  0.89640  1.0000
  C   C16       1.0  0.06040  0.22650  0.60360  1.0000
  C   C17       1.0  0.72620  0.24830  0.02360  1.0000
  C   C18       1.0  0.27380  0.24830  0.47640  1.0000
  C   C19       1.0  0.22620  0.74830  0.02360  1.0000
  C   C20       1.0  0.77380  0.74830  0.47640  1.0000
  C   C21       1.0  0.27380  0.75170  0.97640  1.0000
  C   C22       1.0  0.72620  0.75170  0.52360  1.0000
  C   C23       1.0  0.77380  0.25170  0.97640  1.0000
  C   C24       1.0  0.22620  0.25170  0.52360  1.0000
  C   C25       1.0  0.74280  0.18710  0.17700  1.0000
  C   C26       1.0  0.25720  0.18710  0.32300  1.0000
  C   C27       1.0  0.24280  0.68710  0.17700  1.0000
  C   C28       1.0  0.75720  0.68710  0.32300  1.0000
  C   C29       1.0  0.25720  0.81290  0.82300  1.0000
  C   C30       1.0  0.74280  0.81290  0.67700  1.0000
  C   C31       1.0  0.75720  0.31290  0.82300  1.0000
  C   C32       1.0  0.24280  0.31290  0.67700  1.0000
  C   C33       1.0  0.41660  0.30310  0.12790  1.0000
  C   C34       1.0  0.58340  0.30310  0.37210  1.0000
  C   C35       1.0  0.91660  0.80310  0.12790  1.0000
  C   C36       1.0  0.08340  0.80310  0.37210  1.0000
  C   C37       1.0  0.58340  0.69690  0.87210  1.0000
  C   C38       1.0  0.41660  0.69690  0.62790  1.0000
  C   C39       1.0  0.08340  0.19690  0.87210  1.0000
  C   C40       1.0  0.91660  0.19690  0.62790  1.0000
  H   H1        1.0  0.56100  0.02100  0.23800  1.0000
  H   H2        1.0  0.43900  0.02100  0.26200  1.0000
  H   H3        1.0  0.06100  0.52100  0.23800  1.0000
  H   H4        1.0  0.93900  0.52100  0.26200  1.0000
  H   H5        1.0  0.43900  0.97900  0.76200  1.0000
  H   H6        1.0  0.56100  0.97900  0.73800  1.0000
  H   H7        1.0  0.93900  0.47900  0.76200  1.0000
  H   H8        1.0  0.06100  0.47900  0.73800  1.0000
  H   H9        1.0  0.56800  0.50600  0.26600  1.0000
  H   H10       1.0  0.43200  0.50600  0.23400  1.0000
  H   H11       1.0  0.06800  0.00600  0.26600  1.0000
  H   H12       1.0  0.93200  0.00600  0.23400  1.0000
  H   H13       1.0  0.43200  0.49400  0.73400  1.0000
  H   H14       1.0  0.56800  0.49400  0.76600  1.0000
  H   H15       1.0  0.93200  0.99400  0.73400  1.0000
  H   H16       1.0  0.06800  0.99400  0.76600  1.0000
