data_image0
_chemical_formula_structural       Mn4O20C2H6C4H6C4H6C4H6C6H6
_chemical_formula_sum              "Mn4 O20 C20 H30"
_cell_length_a       9.362
_cell_length_b       10.82
_cell_length_c       12.659
_cell_angle_alpha    70.17
_cell_angle_beta     87.581
_cell_angle_gamma    79.631

_space_group_name_H-M_alt    "P 1"
_space_group_IT_number       1

loop_
  _space_group_symop_operation_xyz
  'x, y, z'

loop_
  _atom_site_type_symbol
  _atom_site_label
  _atom_site_symmetry_multiplicity
  _atom_site_fract_x
  _atom_site_fract_y
  _atom_site_fract_z
  _atom_site_occupancy
  Mn  Mn1       1.0  0.50000  0.50000  0.00000  1.0000
  Mn  Mn2       1.0  0.50000  0.50000  0.50000  1.0000
  Mn  Mn3       1.0  0.36050  0.38365  0.29315  1.0000
  Mn  Mn4       1.0  0.63950  0.61635  0.70685  1.0000
  O   O1        1.0  0.47800  0.29040  0.07770  1.0000
  O   O2        1.0  0.52200  0.70960  0.92230  1.0000
  O   O3        1.0  0.31660  0.25370  0.21360  1.0000
  O   O4        1.0  0.68340  0.74630  0.78640  1.0000
  O   O5        1.0  0.21380  0.34510  0.42320  1.0000
  O   O6        1.0  0.78620  0.65490  0.57680  1.0000
  O   O7        1.0  0.28980  0.43940  0.53660  1.0000
  O   O8        1.0  0.71020  0.56060  0.46340  1.0000
  O   O9        1.0  0.60270  0.29560  0.52640  1.0000
  O   O10       1.0  0.39730  0.70440  0.47360  1.0000
  O   O11       1.0  0.53140  0.23370  0.38910  1.0000
  O   O12       1.0  0.46860  0.76630  0.61090  1.0000
  O   O13       1.0  0.46120  0.54240  0.32110  1.0000
  O   O14       1.0  0.53880  0.45760  0.67890  1.0000
  O   O15       1.0  0.53590  0.50300  0.16930  1.0000
  O   O16       1.0  0.46410  0.49700  0.83070  1.0000
  O   O17       1.0  0.73110  0.43460  0.99180  1.0000
  O   O18       1.0  0.26890  0.56540  0.00820  1.0000
  O   O19       1.0  0.79620  0.45280  0.81610  1.0000
  O   O20       1.0  0.20380  0.54720  0.18390  1.0000
  C   C1        1.0  0.08550  0.33170  0.59050  1.0000
  C   C2        1.0  0.91450  0.66830  0.40950  1.0000
  H   H1        1.0  0.00350  0.40311  0.57450  1.0000
  H   H2        1.0  0.99650  0.59689  0.42550  1.0000
  H   H3        1.0  0.11857  0.30931  0.66651  1.0000
  H   H4        1.0  0.88143  0.69069  0.33349  1.0000
  H   H5        1.0  0.05768  0.25500  0.58067  1.0000
  H   H6        1.0  0.94232  0.74500  0.41933  1.0000
  C   C3        1.0  0.20700  0.37520  0.51080  1.0000
  C   C4        1.0  0.79300  0.62480  0.48920  1.0000
  C   C5        1.0  0.68450  0.07390  0.53260  1.0000
  C   C6        1.0  0.31550  0.92610  0.46740  1.0000
  H   H7        1.0  0.63711  0.01046  0.51652  1.0000
  H   H8        1.0  0.36289  0.98954  0.48348  1.0000
  H   H9        1.0  0.68970  0.05392  0.61240  1.0000
  H   H10       1.0  0.31030  0.94608  0.38760  1.0000
  H   H11       1.0  0.78085  0.06908  0.50337  1.0000
  H   H12       1.0  0.21915  0.93092  0.49663  1.0000
  C   C7        1.0  0.59910  0.21300  0.47830  1.0000
  C   C8        1.0  0.40090  0.78700  0.52170  1.0000
  C   C9        1.0  0.58730  0.70110  0.19360  1.0000
  C   C10       1.0  0.41270  0.29890  0.80640  1.0000
  H   H13       1.0  0.66438  0.69668  0.14187  1.0000
  H   H14       1.0  0.33562  0.30332  0.85813  1.0000
  H   H15       1.0  0.62428  0.71275  0.25857  1.0000
  H   H16       1.0  0.37572  0.28725  0.74143  1.0000
  H   H17       1.0  0.51187  0.77511  0.15803  1.0000
  H   H18       1.0  0.48813  0.22489  0.84197  1.0000
  C   C11       1.0  0.52670  0.57370  0.22880  1.0000
  C   C12       1.0  0.47330  0.42630  0.77120  1.0000
  C   C13       1.0  0.35540  0.10930  0.10920  1.0000
  C   C14       1.0  0.64460  0.89070  0.89080  1.0000
  H   H19       1.0  0.25569  0.12486  0.08557  1.0000
  H   H20       1.0  0.74431  0.87514  0.91443  1.0000
  H   H21       1.0  0.37401  0.03072  0.17471  1.0000
  H   H22       1.0  0.62599  0.96928  0.82529  1.0000
  H   H23       1.0  0.41744  0.09710  0.04992  1.0000
  H   H24       1.0  0.58256  0.90290  0.95008  1.0000
  C   C15       1.0  0.38490  0.22700  0.13650  1.0000
  C   C16       1.0  0.61510  0.77300  0.86350  1.0000
  C   C17       1.0  0.81980  0.41470  0.91990  1.0000
  C   C18       1.0  0.18020  0.58530  0.08010  1.0000
  C   C19       1.0  0.97030  0.34020  0.96210  1.0000
  C   C20       1.0  0.02970  0.65980  0.03790  1.0000
  H   H25       1.0  0.99772  0.27041  0.93063  1.0000
  H   H26       1.0  0.00228  0.72959  0.06937  1.0000
  H   H27       1.0  0.97060  0.30210  0.04256  1.0000
  H   H28       1.0  0.02940  0.69790  0.95744  1.0000
  H   H29       1.0  0.03807  0.40082  0.94003  1.0000
  H   H30       1.0  0.96193  0.59918  0.05997  1.0000
