data_image0
_chemical_formula_structural       Cu2Na2O16N4C14H2C2H2C2H2C2H10
_chemical_formula_sum              "Cu2 Na2 O16 N4 C20 H16"
_cell_length_a       7.0585
_cell_length_b       11.1138
_cell_length_c       13.2578
_cell_angle_alpha    71.726
_cell_angle_beta     79.61
_cell_angle_gamma    74.172

_space_group_name_H-M_alt    "P 1"
_space_group_IT_number       1

loop_
  _space_group_symop_operation_xyz
  'x, y, z'

loop_
  _atom_site_type_symbol
  _atom_site_label
  _atom_site_symmetry_multiplicity
  _atom_site_fract_x
  _atom_site_fract_y
  _atom_site_fract_z
  _atom_site_occupancy
  Cu  Cu1       1.0  0.38310  0.11012  0.39698  1.0000
  Cu  Cu2       1.0  0.61690  0.88988  0.60302  1.0000
  Na  Na1       1.0  0.31510  0.63966  0.33988  1.0000
  Na  Na2       1.0  0.68490  0.36034  0.66012  1.0000
  O   O1        1.0  0.32470  0.94340  0.48788  1.0000
  O   O2        1.0  0.67530  0.05660  0.51212  1.0000
  O   O3        1.0  0.43470  0.83360  0.25531  1.0000
  O   O4        1.0  0.56530  0.16640  0.74469  1.0000
  O   O5        1.0  0.22950  0.44900  0.45703  1.0000
  O   O6        1.0  0.77050  0.55100  0.54297  1.0000
  O   O7        1.0  0.26140  0.23790  0.47901  1.0000
  O   O8        1.0  0.73860  0.76210  0.52099  1.0000
  O   O9        1.0  0.97810  0.74780  0.31840  1.0000
  O   O10       1.0  0.02190  0.25220  0.68160  1.0000
  O   O11       1.0  0.35370  0.48260  0.24244  1.0000
  O   O12       1.0  0.64630  0.51740  0.75756  1.0000
  O   O13       1.0  0.31330  0.75260  0.47061  1.0000
  O   O14       1.0  0.68670  0.24740  0.52939  1.0000
  O   O15       1.0  0.67100  0.50420  0.37330  1.0000
  O   O16       1.0  0.32900  0.49580  0.62670  1.0000
  N   N1        1.0  0.43650  0.25690  0.28430  1.0000
  N   N2        1.0  0.56350  0.74310  0.71570  1.0000
  N   N3        1.0  0.46720  0.02010  0.28880  1.0000
  N   N4        1.0  0.53280  0.97990  0.71120  1.0000
  C   C1        1.0  0.50770  0.23060  0.18520  1.0000
  C   C2        1.0  0.49230  0.76940  0.81480  1.0000
  C   C3        1.0  0.42440  0.90530  0.31300  1.0000
  C   C4        1.0  0.57560  0.09470  0.68700  1.0000
  C   C5        1.0  0.27710  0.35260  0.42330  1.0000
  C   C6        1.0  0.72290  0.64740  0.57670  1.0000
  C   C7        1.0  0.52470  0.09900  0.18750  1.0000
  C   C8        1.0  0.47530  0.90100  0.81250  1.0000
  C   C9        1.0  0.36470  0.37120  0.30300  1.0000
  C   C10       1.0  0.63530  0.62880  0.69700  1.0000
  C   C11       1.0  0.34710  0.86020  0.43410  1.0000
  C   C12       1.0  0.65290  0.13980  0.56590  1.0000
  C   C13       1.0  0.55580  0.31970  0.09090  1.0000
  C   C14       1.0  0.44420  0.68030  0.90910  1.0000
  H   H1        1.0  0.54690  0.40520  0.08970  1.0000
  H   H2        1.0  0.45310  0.59480  0.91030  1.0000
  C   C15       1.0  0.58990  0.06120  0.09370  1.0000
  C   C16       1.0  0.41010  0.93880  0.90630  1.0000
  H   H3        1.0  0.60360  0.97530  0.09430  1.0000
  H   H4        1.0  0.39640  0.02470  0.90570  1.0000
  C   C17       1.0  0.61800  0.28060  0.99710  1.0000
  C   C18       1.0  0.38200  0.71940  0.00290  1.0000
  H   H5        1.0  0.64850  0.34060  0.93340  1.0000
  H   H6        1.0  0.35150  0.65940  0.06660  1.0000
  C   C19       1.0  0.63430  0.15290  0.99920  1.0000
  C   C20       1.0  0.36570  0.84710  0.00080  1.0000
  H   H7        1.0  0.67540  0.12800  0.93650  1.0000
  H   H8        1.0  0.32460  0.87200  0.06350  1.0000
  H   H9        1.0  0.91900  0.72400  0.27600  1.0000
  H   H10       1.0  0.08100  0.27600  0.72400  1.0000
  H   H11       1.0  0.65500  0.42310  0.40700  1.0000
  H   H12       1.0  0.34500  0.57690  0.59300  1.0000
  H   H13       1.0  0.91200  0.72800  0.38400  1.0000
  H   H14       1.0  0.08800  0.27200  0.61600  1.0000
  H   H15       1.0  0.71800  0.53200  0.41900  1.0000
  H   H16       1.0  0.28200  0.46800  0.58100  1.0000
