data_image0
_chemical_formula_structural       Mn2O12CHCHCHCHCHCH
_chemical_formula_sum              "Mn2 O12 C6 H6"
_cell_length_a       8.198
_cell_length_b       8.2
_cell_length_c       8.933
_cell_angle_alpha    63.28
_cell_angle_beta     63.31
_cell_angle_gamma    60.06

_space_group_name_H-M_alt    "P 1"
_space_group_IT_number       1

loop_
  _space_group_symop_operation_xyz
  'x, y, z'

loop_
  _atom_site_type_symbol
  _atom_site_label
  _atom_site_symmetry_multiplicity
  _atom_site_fract_x
  _atom_site_fract_y
  _atom_site_fract_z
  _atom_site_occupancy
  Mn  Mn1       1.0  0.72710  0.76760  0.10060  1.0000
  Mn  Mn2       1.0  0.23260  0.26200  0.60110  1.0000
  O   O1        1.0  0.19690  0.97770  0.76060  1.0000
  O   O2        1.0  0.70100  0.91880  0.25990  1.0000
  O   O3        1.0  0.44760  0.73310  0.25900  1.0000
  O   O4        1.0  0.36900  0.22720  0.77370  1.0000
  O   O5        1.0  0.76700  0.61750  0.92950  1.0000
  O   O6        1.0  0.01060  0.80310  0.93850  1.0000
  O   O7        1.0  0.94990  0.42300  0.75340  1.0000
  O   O8        1.0  0.06850  0.29020  0.44320  1.0000
  O   O9        1.0  0.88890  0.48000  0.25750  1.0000
  O   O10       1.0  0.26670  0.53870  0.43480  1.0000
  O   O11       1.0  0.51660  0.10240  0.44320  1.0000
  O   O12       1.0  0.56480  0.04740  0.94730  1.0000
  C   C1        1.0  0.97400  0.45800  0.35000  1.0000
  H   H1        1.0  0.97180  0.57050  0.35430  1.0000
  C   C2        1.0  0.42400  0.56700  0.33950  1.0000
  H   H2        1.0  0.53630  0.45540  0.32500  1.0000
  C   C3        1.0  0.03500  0.95900  0.83700  1.0000
  H   H3        1.0  0.92430  0.06990  0.81650  1.0000
  C   C4        1.0  0.92600  0.52500  0.84970  1.0000
  H   H4        1.0  0.03770  0.52400  0.85490  1.0000
  C   C5        1.0  0.54500  0.02500  0.34500  1.0000
  H   H5        1.0  0.43160  0.04640  0.32710  1.0000
  C   C6        1.0  0.47200  0.07600  0.85100  1.0000
  H   H6        1.0  0.48610  0.96240  0.83850  1.0000
