data_image0
_chemical_formula_structural       Zn12O56N12C16H4C4H4C4H4C4H4C16H4C4H4C4H4C4H4C24H4C4H4C4H4C4H4C16H4C4H4C4H4C4H4C28H4C4H4C4H4C4H4C4H4C4H4C8H4C4H4C4H4C4H4C8H4C4H4C16H4C4H4C4H4C4H4C8H4C4H12C4H12
_chemical_formula_sum              "Zn12 O56 N12 C244 H156"
_cell_length_a       15.81
_cell_length_b       26.422
_cell_length_c       16.435
_cell_angle_alpha    90
_cell_angle_beta     90
_cell_angle_gamma    90

_space_group_name_H-M_alt    "P 1"
_space_group_IT_number       1

loop_
  _space_group_symop_operation_xyz
  'x, y, z'

loop_
  _atom_site_type_symbol
  _atom_site_label
  _atom_site_symmetry_multiplicity
  _atom_site_fract_x
  _atom_site_fract_y
  _atom_site_fract_z
  _atom_site_occupancy
  Zn  Zn1       1.0  0.36104  0.12509  0.75076  1.0000
  Zn  Zn2       1.0  0.13896  0.62509  0.74924  1.0000
  Zn  Zn3       1.0  0.63896  0.87491  0.24924  1.0000
  Zn  Zn4       1.0  0.86104  0.37491  0.25076  1.0000
  Zn  Zn5       1.0  0.07725  0.36058  0.25357  1.0000
  Zn  Zn6       1.0  0.42275  0.86058  0.24643  1.0000
  Zn  Zn7       1.0  0.92275  0.63942  0.74643  1.0000
  Zn  Zn8       1.0  0.57725  0.13942  0.75357  1.0000
  Zn  Zn9       1.0  0.45162  0.24522  0.74948  1.0000
  Zn  Zn10      1.0  0.04838  0.74522  0.75052  1.0000
  Zn  Zn11      1.0  0.54838  0.75478  0.25052  1.0000
  Zn  Zn12      1.0  0.95162  0.25478  0.24948  1.0000
  O   O1        1.0  0.37990  0.23384  0.85520  1.0000
  O   O2        1.0  0.12010  0.73384  0.64480  1.0000
  O   O3        1.0  0.62010  0.76616  0.14480  1.0000
  O   O4        1.0  0.87990  0.26616  0.35520  1.0000
  O   O5        1.0  0.29160  0.16924  0.82930  1.0000
  O   O6        1.0  0.20840  0.66924  0.67070  1.0000
  O   O7        1.0  0.70840  0.83076  0.17070  1.0000
  O   O8        1.0  0.79160  0.33076  0.32930  1.0000
  O   O9        1.0  0.13080  0.30650  0.17890  1.0000
  O   O10       1.0  0.36920  0.80650  0.32110  1.0000
  O   O11       1.0  0.86920  0.69350  0.82110  1.0000
  O   O12       1.0  0.63080  0.19350  0.67890  1.0000
  O   O13       1.0  0.03170  0.24740  0.14860  1.0000
  O   O14       1.0  0.46830  0.74740  0.35140  1.0000
  O   O15       1.0  0.96830  0.75260  0.85140  1.0000
  O   O16       1.0  0.53170  0.25260  0.64860  1.0000
  O   O17       1.0  0.08820  0.31839  0.35930  1.0000
  O   O18       1.0  0.41180  0.81839  0.14070  1.0000
  O   O19       1.0  0.91180  0.68161  0.64070  1.0000
  O   O20       1.0  0.58820  0.18161  0.85930  1.0000
  O   O21       1.0  0.05250  0.23894  0.32770  1.0000
  O   O22       1.0  0.44750  0.73894  0.17230  1.0000
  O   O23       1.0  0.94750  0.76106  0.67230  1.0000
  O   O24       1.0  0.55250  0.26106  0.82770  1.0000
  O   O25       1.0  0.34330  0.23963  0.67520  1.0000
  O   O26       1.0  0.15670  0.73963  0.82480  1.0000
  O   O27       1.0  0.65670  0.76037  0.32480  1.0000
  O   O28       1.0  0.84330  0.26037  0.17520  1.0000
  O   O29       1.0  0.30640  0.15886  0.64970  1.0000
  O   O30       1.0  0.19360  0.65886  0.85030  1.0000
  O   O31       1.0  0.69360  0.84114  0.35030  1.0000
  O   O32       1.0  0.80640  0.34114  0.14970  1.0000
  O   O33       1.0  0.41440  0.09268  0.85640  1.0000
  O   O34       1.0  0.08560  0.59268  0.64360  1.0000
  O   O35       1.0  0.58560  0.90732  0.14360  1.0000
  O   O36       1.0  0.91440  0.40732  0.35640  1.0000
  O   O37       1.0  0.55130  0.07853  0.82640  1.0000
  O   O38       1.0  0.94870  0.57853  0.67360  1.0000
  O   O39       1.0  0.44870  0.92147  0.17360  1.0000
  O   O40       1.0  0.05130  0.42147  0.32640  1.0000
  O   O41       1.0  0.42740  0.07267  0.67530  1.0000
  O   O42       1.0  0.07260  0.57267  0.82470  1.0000
  O   O43       1.0  0.57260  0.92733  0.32470  1.0000
  O   O44       1.0  0.92740  0.42733  0.17530  1.0000
  O   O45       1.0  0.56210  0.09489  0.65000  1.0000
  O   O46       1.0  0.93790  0.59489  0.85000  1.0000
  O   O47       1.0  0.43790  0.90511  0.35000  1.0000
  O   O48       1.0  0.06210  0.40511  0.15000  1.0000
  O   O49       1.0  0.46226  0.16972  0.73785  1.0000
  O   O50       1.0  0.03774  0.66972  0.76215  1.0000
  O   O51       1.0  0.53774  0.83028  0.26215  1.0000
  O   O52       1.0  0.96226  0.33028  0.23785  1.0000
  O   O53       1.0  0.20810  0.38310  0.27230  1.0000
  O   O54       1.0  0.29190  0.88310  0.22770  1.0000
  O   O55       1.0  0.79190  0.61690  0.72770  1.0000
  O   O56       1.0  0.70810  0.11690  0.77230  1.0000
  N   N1        1.0  0.26740  0.06653  0.75260  1.0000
  N   N2        1.0  0.23260  0.56653  0.74740  1.0000
  N   N3        1.0  0.73260  0.93347  0.24740  1.0000
  N   N4        1.0  0.76740  0.43347  0.25260  1.0000
  N   N5        1.0  0.07820  0.82412  0.75010  1.0000
  N   N6        1.0  0.42180  0.32412  0.74990  1.0000
  N   N7        1.0  0.92180  0.17588  0.24990  1.0000
  N   N8        1.0  0.57820  0.67588  0.25010  1.0000
  N   N9        1.0  0.31050  0.38340  0.37500  1.0000
  N   N10       1.0  0.18950  0.88340  0.12500  1.0000
  N   N11       1.0  0.68950  0.61660  0.62500  1.0000
  N   N12       1.0  0.81050  0.11660  0.87500  1.0000
  C   C1        1.0  0.31630  0.20750  0.86900  1.0000
  C   C2        1.0  0.18370  0.70750  0.63100  1.0000
  C   C3        1.0  0.68370  0.79250  0.13100  1.0000
  C   C4        1.0  0.81630  0.29250  0.36900  1.0000
  C   C5        1.0  0.26090  0.22350  0.93840  1.0000
  C   C6        1.0  0.23910  0.72350  0.56160  1.0000
  C   C7        1.0  0.73910  0.77650  0.06160  1.0000
  C   C8        1.0  0.76090  0.27650  0.43840  1.0000
  C   C9        1.0  0.26910  0.19990  0.01500  1.0000
  C   C10       1.0  0.23090  0.69990  0.48500  1.0000
  C   C11       1.0  0.73090  0.80010  0.98500  1.0000
  C   C12       1.0  0.76910  0.30010  0.51500  1.0000
  C   C13       1.0  0.33050  0.16050  0.02860  1.0000
  C   C14       1.0  0.16950  0.66050  0.47140  1.0000
  C   C15       1.0  0.66950  0.83950  0.97140  1.0000
  C   C16       1.0  0.83050  0.33950  0.52860  1.0000
  H   H1        1.0  0.36510  0.14870  0.98530  1.0000
  H   H2        1.0  0.13490  0.64870  0.51470  1.0000
  H   H3        1.0  0.63490  0.85130  0.01470  1.0000
  H   H4        1.0  0.86510  0.35130  0.48530  1.0000
  C   C17       1.0  0.33800  0.14030  0.10440  1.0000
  C   C18       1.0  0.16200  0.64030  0.39560  1.0000
  C   C19       1.0  0.66200  0.85970  0.89560  1.0000
  C   C20       1.0  0.83800  0.35970  0.60440  1.0000
  H   H5        1.0  0.37970  0.11510  0.11380  1.0000
  H   H6        1.0  0.12030  0.61510  0.38620  1.0000
  H   H7        1.0  0.62030  0.88490  0.88620  1.0000
  H   H8        1.0  0.87970  0.38490  0.61380  1.0000
  C   C21       1.0  0.28620  0.15580  0.16920  1.0000
  C   C22       1.0  0.21380  0.65580  0.33080  1.0000
  C   C23       1.0  0.71380  0.84420  0.83080  1.0000
  C   C24       1.0  0.78620  0.34420  0.66920  1.0000
  H   H9        1.0  0.29330  0.14090  0.22140  1.0000
  H   H10       1.0  0.20670  0.64090  0.27860  1.0000
  H   H11       1.0  0.70670  0.85910  0.77860  1.0000
  H   H12       1.0  0.79330  0.35910  0.72140  1.0000
  C   C25       1.0  0.22540  0.19210  0.15760  1.0000
  C   C26       1.0  0.27460  0.69210  0.34240  1.0000
  C   C27       1.0  0.77460  0.80790  0.84240  1.0000
  C   C28       1.0  0.72540  0.30790  0.65760  1.0000
  H   H13       1.0  0.19030  0.20180  0.20180  1.0000
  H   H14       1.0  0.30970  0.70180  0.29820  1.0000
  H   H15       1.0  0.80970  0.79820  0.79820  1.0000
  H   H16       1.0  0.69030  0.29820  0.70180  1.0000
  C   C29       1.0  0.21430  0.21530  0.08040  1.0000
  C   C30       1.0  0.28570  0.71530  0.41960  1.0000
  C   C31       1.0  0.78570  0.78470  0.91960  1.0000
  C   C32       1.0  0.71430  0.28470  0.58040  1.0000
  C   C33       1.0  0.15580  0.25370  0.06790  1.0000
  C   C34       1.0  0.34420  0.75370  0.43210  1.0000
  C   C35       1.0  0.84420  0.74630  0.93210  1.0000
  C   C36       1.0  0.65580  0.24630  0.56790  1.0000
  C   C37       1.0  0.14880  0.27820  0.99180  1.0000
  C   C38       1.0  0.35120  0.77820  0.50820  1.0000
  C   C39       1.0  0.85120  0.72180  0.00820  1.0000
  C   C40       1.0  0.64880  0.22180  0.49180  1.0000
  C   C41       1.0  0.09220  0.31980  0.97900  1.0000
  C   C42       1.0  0.40780  0.81980  0.52100  1.0000
  C   C43       1.0  0.90780  0.68020  0.02100  1.0000
  C   C44       1.0  0.59220  0.18020  0.47900  1.0000
  H   H17       1.0  0.05850  0.33180  0.02270  1.0000
  H   H18       1.0  0.44150  0.83180  0.47730  1.0000
  H   H19       1.0  0.94150  0.66820  0.97730  1.0000
  H   H20       1.0  0.55850  0.16820  0.52270  1.0000
  C   C45       1.0  0.08670  0.34190  0.90520  1.0000
  C   C46       1.0  0.41330  0.84190  0.59480  1.0000
  C   C47       1.0  0.91330  0.65810  0.09480  1.0000
  C   C48       1.0  0.58670  0.15810  0.40520  1.0000
  H   H21       1.0  0.04840  0.36920  0.89760  1.0000
  H   H22       1.0  0.45160  0.86920  0.60240  1.0000
  H   H23       1.0  0.95160  0.63080  0.10240  1.0000
  H   H24       1.0  0.54840  0.13080  0.39760  1.0000
  C   C49       1.0  0.13620  0.32560  0.83990  1.0000
  C   C50       1.0  0.36380  0.82560  0.66010  1.0000
  C   C51       1.0  0.86380  0.67440  0.16010  1.0000
  C   C52       1.0  0.63620  0.17440  0.33990  1.0000
  H   H25       1.0  0.12970  0.34110  0.78820  1.0000
  H   H26       1.0  0.37030  0.84110  0.71180  1.0000
  H   H27       1.0  0.87030  0.65890  0.21180  1.0000
  H   H28       1.0  0.62970  0.15890  0.28820  1.0000
  C   C53       1.0  0.19360  0.28740  0.84950  1.0000
  C   C54       1.0  0.30640  0.78740  0.65050  1.0000
  C   C55       1.0  0.80640  0.71260  0.15050  1.0000
  C   C56       1.0  0.69360  0.21260  0.34950  1.0000
  H   H29       1.0  0.22850  0.27760  0.80520  1.0000
  H   H30       1.0  0.27150  0.77760  0.69480  1.0000
  H   H31       1.0  0.77150  0.72240  0.19480  1.0000
  H   H32       1.0  0.72850  0.22240  0.30520  1.0000
  C   C57       1.0  0.20150  0.26210  0.92700  1.0000
  C   C58       1.0  0.29850  0.76210  0.57300  1.0000
  C   C59       1.0  0.79850  0.73790  0.07300  1.0000
  C   C60       1.0  0.70150  0.23790  0.42700  1.0000
  C   C61       1.0  0.10060  0.27010  0.13730  1.0000
  C   C62       1.0  0.39940  0.77010  0.36270  1.0000
  C   C63       1.0  0.89940  0.72990  0.86270  1.0000
  C   C64       1.0  0.60060  0.22990  0.63730  1.0000
  C   C65       1.0  0.08970  0.27160  0.36920  1.0000
  C   C66       1.0  0.41030  0.77160  0.13080  1.0000
  C   C67       1.0  0.91030  0.72840  0.63080  1.0000
  C   C68       1.0  0.58970  0.22840  0.86920  1.0000
  C   C69       1.0  0.14420  0.25410  0.43870  1.0000
  C   C70       1.0  0.35580  0.75410  0.06130  1.0000
  C   C71       1.0  0.85580  0.74590  0.56130  1.0000
  C   C72       1.0  0.64420  0.24590  0.93870  1.0000
  C   C73       1.0  0.10880  0.24380  0.51500  1.0000
  C   C74       1.0  0.39120  0.74380  0.98500  1.0000
  C   C75       1.0  0.89120  0.75620  0.48500  1.0000
  C   C76       1.0  0.60880  0.25620  0.01500  1.0000
  C   C77       1.0  0.01920  0.25000  0.53070  1.0000
  C   C78       1.0  0.48080  0.75000  0.96930  1.0000
  C   C79       1.0  0.98080  0.75000  0.46930  1.0000
  C   C80       1.0  0.51920  0.25000  0.03070  1.0000
  H   H33       1.0  0.98250  0.25950  0.48750  1.0000
  H   H34       1.0  0.51750  0.75950  0.01250  1.0000
  H   H35       1.0  0.01750  0.74050  0.51250  1.0000
  H   H36       1.0  0.48250  0.24050  0.98750  1.0000
  C   C81       1.0  0.98780  0.24240  0.60450  1.0000
  C   C82       1.0  0.51220  0.74240  0.89550  1.0000
  C   C83       1.0  0.01220  0.75760  0.39550  1.0000
  C   C84       1.0  0.48780  0.25760  0.10450  1.0000
  H   H37       1.0  0.92910  0.24770  0.61340  1.0000
  H   H38       1.0  0.57090  0.74770  0.88660  1.0000
  H   H39       1.0  0.07090  0.75230  0.38660  1.0000
  H   H40       1.0  0.42910  0.25230  0.11340  1.0000
  C   C85       1.0  0.03900  0.22680  0.67060  1.0000
  C   C86       1.0  0.46100  0.72680  0.82940  1.0000
  C   C87       1.0  0.96100  0.77320  0.32940  1.0000
  C   C88       1.0  0.53900  0.27320  0.17060  1.0000
  H   H41       1.0  0.01460  0.22140  0.72270  1.0000
  H   H42       1.0  0.48540  0.72140  0.77730  1.0000
  H   H43       1.0  0.98540  0.77860  0.27730  1.0000
  H   H44       1.0  0.51460  0.27860  0.22270  1.0000
  C   C89       1.0  0.12420  0.21930  0.65890  1.0000
  C   C90       1.0  0.37580  0.71930  0.84110  1.0000
  C   C91       1.0  0.87580  0.78070  0.34110  1.0000
  C   C92       1.0  0.62420  0.28070  0.15890  1.0000
  H   H45       1.0  0.15840  0.20800  0.70280  1.0000
  H   H46       1.0  0.34160  0.70800  0.79720  1.0000
  H   H47       1.0  0.84160  0.79200  0.29720  1.0000
  H   H48       1.0  0.65840  0.29200  0.20280  1.0000
  C   C93       1.0  0.16220  0.22870  0.58010  1.0000
  C   C94       1.0  0.33780  0.72870  0.91990  1.0000
  C   C95       1.0  0.83780  0.77130  0.41990  1.0000
  C   C96       1.0  0.66220  0.27130  0.08010  1.0000
  C   C97       1.0  0.24890  0.22260  0.56810  1.0000
  C   C98       1.0  0.25110  0.72260  0.93190  1.0000
  C   C99       1.0  0.75110  0.77740  0.43190  1.0000
  C   C100      1.0  0.74890  0.27740  0.06810  1.0000
  C   C101      1.0  0.28630  0.23460  0.49250  1.0000
  C   C102      1.0  0.21370  0.73460  0.00750  1.0000
  C   C103      1.0  0.71370  0.76540  0.50750  1.0000
  C   C104      1.0  0.78630  0.26540  0.99250  1.0000
  C   C105      1.0  0.37450  0.23250  0.47940  1.0000
  C   C106      1.0  0.12550  0.73250  0.02060  1.0000
  C   C107      1.0  0.62550  0.76750  0.52060  1.0000
  C   C108      1.0  0.87450  0.26750  0.97940  1.0000
  H   H49       1.0  0.41100  0.22390  0.52320  1.0000
  H   H50       1.0  0.08900  0.72390  0.97680  1.0000
  H   H51       1.0  0.58900  0.77610  0.47680  1.0000
  H   H52       1.0  0.91100  0.27610  0.02320  1.0000
  C   C109      1.0  0.40830  0.24280  0.40330  1.0000
  C   C110      1.0  0.09170  0.74280  0.09670  1.0000
  C   C111      1.0  0.59170  0.75720  0.59670  1.0000
  C   C112      1.0  0.90830  0.25720  0.90330  1.0000
  H   H53       1.0  0.46780  0.24170  0.39520  1.0000
  H   H54       1.0  0.03220  0.74170  0.10480  1.0000
  H   H55       1.0  0.53220  0.75830  0.60480  1.0000
  H   H56       1.0  0.96780  0.25830  0.89520  1.0000
  C   C113      1.0  0.35400  0.25500  0.33770  1.0000
  C   C114      1.0  0.14600  0.75500  0.16230  1.0000
  C   C115      1.0  0.64600  0.74500  0.66230  1.0000
  C   C116      1.0  0.85400  0.24500  0.83770  1.0000
  H   H57       1.0  0.37720  0.26080  0.28520  1.0000
  H   H58       1.0  0.12280  0.76080  0.21480  1.0000
  H   H59       1.0  0.62280  0.73920  0.71480  1.0000
  H   H60       1.0  0.87720  0.23920  0.78520  1.0000
  C   C117      1.0  0.26920  0.25840  0.34860  1.0000
  C   C118      1.0  0.23080  0.75840  0.15140  1.0000
  C   C119      1.0  0.73080  0.74160  0.65140  1.0000
  C   C120      1.0  0.76920  0.24160  0.84860  1.0000
  H   H61       1.0  0.23410  0.26690  0.30380  1.0000
  H   H62       1.0  0.26590  0.76690  0.19620  1.0000
  H   H63       1.0  0.76590  0.73310  0.69620  1.0000
  H   H64       1.0  0.73410  0.23310  0.80380  1.0000
  C   C121      1.0  0.23190  0.24970  0.42620  1.0000
  C   C122      1.0  0.26810  0.74970  0.07380  1.0000
  C   C123      1.0  0.76810  0.75030  0.57380  1.0000
  C   C124      1.0  0.73190  0.25030  0.92620  1.0000
  C   C125      1.0  0.30430  0.20560  0.63710  1.0000
  C   C126      1.0  0.19570  0.70560  0.86290  1.0000
  C   C127      1.0  0.69570  0.79440  0.36290  1.0000
  C   C128      1.0  0.80430  0.29440  0.13710  1.0000
  C   C129      1.0  0.48350  0.07200  0.86740  1.0000
  C   C130      1.0  0.01650  0.57200  0.63260  1.0000
  C   C131      1.0  0.51650  0.92800  0.13260  1.0000
  C   C132      1.0  0.98350  0.42800  0.36740  1.0000
  C   C133      1.0  0.49170  0.03530  0.93670  1.0000
  C   C134      1.0  0.00830  0.53530  0.56330  1.0000
  C   C135      1.0  0.50830  0.96470  0.06330  1.0000
  C   C136      1.0  0.99170  0.46470  0.43670  1.0000
  C   C137      1.0  0.46540  0.98520  0.92390  1.0000
  C   C138      1.0  0.03460  0.48520  0.57610  1.0000
  C   C139      1.0  0.53460  0.01480  0.07610  1.0000
  C   C140      1.0  0.96540  0.51480  0.42390  1.0000
  C   C141      1.0  0.52620  0.05130  0.00930  1.0000
  C   C142      1.0  0.97380  0.55130  0.49070  1.0000
  C   C143      1.0  0.47380  0.94870  0.99070  1.0000
  C   C144      1.0  0.02620  0.44870  0.50930  1.0000
  C   C145      1.0  0.55490  0.10240  0.02400  1.0000
  C   C146      1.0  0.94510  0.60240  0.47600  1.0000
  C   C147      1.0  0.44510  0.89760  0.97600  1.0000
  C   C148      1.0  0.05490  0.39760  0.52400  1.0000
  H   H65       1.0  0.55000  0.12710  0.98230  1.0000
  H   H66       1.0  0.95000  0.62710  0.51770  1.0000
  H   H67       1.0  0.45000  0.87290  0.01770  1.0000
  H   H68       1.0  0.05000  0.37290  0.48230  1.0000
  C   C149      1.0  0.58840  0.11530  0.09640  1.0000
  C   C150      1.0  0.91160  0.61530  0.40360  1.0000
  C   C151      1.0  0.41160  0.88470  0.90360  1.0000
  C   C152      1.0  0.08840  0.38470  0.59640  1.0000
  H   H69       1.0  0.60730  0.14900  0.10470  1.0000
  H   H70       1.0  0.89270  0.64900  0.39530  1.0000
  H   H71       1.0  0.39270  0.85100  0.89530  1.0000
  H   H72       1.0  0.10730  0.35100  0.60470  1.0000
  C   C153      1.0  0.59610  0.07950  0.16090  1.0000
  C   C154      1.0  0.90390  0.57950  0.33910  1.0000
  C   C155      1.0  0.40390  0.92050  0.83910  1.0000
  C   C156      1.0  0.09610  0.42050  0.66090  1.0000
  H   H73       1.0  0.61950  0.08990  0.21150  1.0000
  H   H74       1.0  0.88050  0.58990  0.28850  1.0000
  H   H75       1.0  0.38050  0.91010  0.78850  1.0000
  H   H76       1.0  0.11950  0.41010  0.71150  1.0000
  C   C157      1.0  0.42950  0.96950  0.84900  1.0000
  C   C158      1.0  0.07050  0.46950  0.65100  1.0000
  C   C159      1.0  0.57050  0.03050  0.15100  1.0000
  C   C160      1.0  0.92950  0.53050  0.34900  1.0000
  H   H77       1.0  0.42340  0.99300  0.80560  1.0000
  H   H78       1.0  0.07660  0.49300  0.69440  1.0000
  H   H79       1.0  0.57660  0.00700  0.19440  1.0000
  H   H80       1.0  0.92340  0.50700  0.30560  1.0000
  C   C161      1.0  0.24280  0.04440  0.81970  1.0000
  C   C162      1.0  0.25720  0.54440  0.68030  1.0000
  C   C163      1.0  0.75720  0.95560  0.18030  1.0000
  C   C164      1.0  0.74280  0.45560  0.31970  1.0000
  H   H81       1.0  0.25490  0.06100  0.86960  1.0000
  H   H82       1.0  0.24510  0.56100  0.63040  1.0000
  H   H83       1.0  0.74510  0.93900  0.13040  1.0000
  H   H84       1.0  0.75490  0.43900  0.36960  1.0000
  C   C165      1.0  0.20050  0.99870  0.82390  1.0000
  C   C166      1.0  0.29950  0.49870  0.67610  1.0000
  C   C167      1.0  0.79950  0.00130  0.17610  1.0000
  C   C168      1.0  0.70050  0.50130  0.32390  1.0000
  H   H85       1.0  0.18530  0.98450  0.87500  1.0000
  H   H86       1.0  0.31470  0.48450  0.62500  1.0000
  H   H87       1.0  0.81470  0.01550  0.12500  1.0000
  H   H88       1.0  0.68530  0.51550  0.37500  1.0000
  C   C169      1.0  0.18070  0.97400  0.75130  1.0000
  C   C170      1.0  0.31930  0.47400  0.74870  1.0000
  C   C171      1.0  0.81930  0.02600  0.24870  1.0000
  C   C172      1.0  0.68070  0.52600  0.25130  1.0000
  C   C173      1.0  0.20170  0.99970  0.68210  1.0000
  C   C174      1.0  0.29830  0.49970  0.81790  1.0000
  C   C175      1.0  0.79830  0.00030  0.31790  1.0000
  C   C176      1.0  0.70170  0.50030  0.18210  1.0000
  H   H89       1.0  0.18640  0.98600  0.63070  1.0000
  H   H90       1.0  0.31360  0.48600  0.86930  1.0000
  H   H91       1.0  0.81360  0.01400  0.36930  1.0000
  H   H92       1.0  0.68640  0.51400  0.13070  1.0000
  C   C177      1.0  0.24370  0.04430  0.68500  1.0000
  C   C178      1.0  0.25630  0.54430  0.81500  1.0000
  C   C179      1.0  0.75630  0.95570  0.31500  1.0000
  C   C180      1.0  0.74370  0.45570  0.18500  1.0000
  H   H93       1.0  0.25690  0.06050  0.63500  1.0000
  H   H94       1.0  0.24310  0.56050  0.86500  1.0000
  H   H95       1.0  0.74310  0.93950  0.36500  1.0000
  H   H96       1.0  0.75690  0.43950  0.13500  1.0000
  C   C181      1.0  0.08510  0.85040  0.81640  1.0000
  C   C182      1.0  0.41490  0.35040  0.68360  1.0000
  C   C183      1.0  0.91490  0.14960  0.18360  1.0000
  C   C184      1.0  0.58510  0.64960  0.31640  1.0000
  H   H97       1.0  0.06720  0.83560  0.86610  1.0000
  H   H98       1.0  0.43280  0.33560  0.63390  1.0000
  H   H99       1.0  0.93280  0.16440  0.13390  1.0000
  H   H100      1.0  0.56720  0.66440  0.36610  1.0000
  C   C185      1.0  0.11770  0.89960  0.81810  1.0000
  C   C186      1.0  0.38230  0.39960  0.68190  1.0000
  C   C187      1.0  0.88230  0.10040  0.18190  1.0000
  C   C188      1.0  0.61770  0.60040  0.31810  1.0000
  H   H101      1.0  0.12270  0.91660  0.86880  1.0000
  H   H102      1.0  0.37730  0.41660  0.63120  1.0000
  H   H103      1.0  0.87730  0.08340  0.13120  1.0000
  H   H104      1.0  0.62270  0.58340  0.36880  1.0000
  C   C189      1.0  0.14130  0.92250  0.75190  1.0000
  C   C190      1.0  0.35870  0.42250  0.74810  1.0000
  C   C191      1.0  0.85870  0.07750  0.24810  1.0000
  C   C192      1.0  0.64130  0.57750  0.25190  1.0000
  C   C193      1.0  0.12810  0.89700  0.68260  1.0000
  C   C194      1.0  0.37190  0.39700  0.81740  1.0000
  C   C195      1.0  0.87190  0.10300  0.31740  1.0000
  C   C196      1.0  0.62810  0.60300  0.18260  1.0000
  H   H105      1.0  0.14200  0.91220  0.63190  1.0000
  H   H106      1.0  0.35800  0.41220  0.86810  1.0000
  H   H107      1.0  0.85800  0.08780  0.36810  1.0000
  H   H108      1.0  0.64200  0.58780  0.13190  1.0000
  C   C197      1.0  0.09380  0.84790  0.68450  1.0000
  C   C198      1.0  0.40620  0.34790  0.81550  1.0000
  C   C199      1.0  0.90620  0.15210  0.31550  1.0000
  C   C200      1.0  0.59380  0.65210  0.18450  1.0000
  H   H109      1.0  0.08160  0.83170  0.63430  1.0000
  H   H110      1.0  0.41840  0.33170  0.86570  1.0000
  H   H111      1.0  0.91840  0.16830  0.36570  1.0000
  H   H112      1.0  0.58160  0.66830  0.13430  1.0000
  C   C201      1.0  0.49470  0.07030  0.63610  1.0000
  C   C202      1.0  0.00530  0.57030  0.86390  1.0000
  C   C203      1.0  0.50530  0.92970  0.36390  1.0000
  C   C204      1.0  0.99470  0.42970  0.13610  1.0000
  C   C205      1.0  0.49700  0.03410  0.56520  1.0000
  C   C206      1.0  0.00300  0.53410  0.93480  1.0000
  C   C207      1.0  0.50300  0.96590  0.43480  1.0000
  C   C208      1.0  0.99700  0.46590  0.06520  1.0000
  C   C209      1.0  0.54460  0.98930  0.57350  1.0000
  C   C210      1.0  0.95540  0.48930  0.92650  1.0000
  C   C211      1.0  0.45540  0.01070  0.42650  1.0000
  C   C212      1.0  0.04460  0.51070  0.07350  1.0000
  C   C213      1.0  0.58510  0.97640  0.64670  1.0000
  C   C214      1.0  0.91490  0.47640  0.85330  1.0000
  C   C215      1.0  0.41490  0.02360  0.35330  1.0000
  C   C216      1.0  0.08510  0.52360  0.14670  1.0000
  H   H113      1.0  0.58060  0.99820  0.69240  1.0000
  H   H114      1.0  0.91940  0.49820  0.80760  1.0000
  H   H115      1.0  0.41940  0.00180  0.30760  1.0000
  H   H116      1.0  0.08060  0.50180  0.19240  1.0000
  C   C217      1.0  0.63140  0.93230  0.65280  1.0000
  C   C218      1.0  0.86860  0.43230  0.84720  1.0000
  C   C219      1.0  0.36860  0.06770  0.34720  1.0000
  C   C220      1.0  0.13140  0.56770  0.15280  1.0000
  H   H117      1.0  0.65980  0.92430  0.70210  1.0000
  H   H118      1.0  0.84020  0.42430  0.79790  1.0000
  H   H119      1.0  0.34020  0.07570  0.29790  1.0000
  H   H120      1.0  0.15980  0.57570  0.20210  1.0000
  C   C221      1.0  0.63670  0.89860  0.58450  1.0000
  C   C222      1.0  0.86330  0.39860  0.91550  1.0000
  C   C223      1.0  0.36330  0.10140  0.41550  1.0000
  C   C224      1.0  0.13670  0.60140  0.08450  1.0000
  H   H121      1.0  0.66870  0.86830  0.58950  1.0000
  H   H122      1.0  0.83130  0.36830  0.91050  1.0000
  H   H123      1.0  0.33130  0.13170  0.41050  1.0000
  H   H124      1.0  0.16870  0.63170  0.08950  1.0000
  C   C225      1.0  0.59750  0.90880  0.51360  1.0000
  C   C226      1.0  0.90250  0.40880  0.98640  1.0000
  C   C227      1.0  0.40250  0.09120  0.48640  1.0000
  C   C228      1.0  0.09750  0.59120  0.01360  1.0000
  H   H125      1.0  0.60290  0.88630  0.46880  1.0000
  H   H126      1.0  0.89710  0.38630  0.03120  1.0000
  H   H127      1.0  0.39710  0.11370  0.53120  1.0000
  H   H128      1.0  0.10290  0.61370  0.96880  1.0000
  C   C229      1.0  0.45330  0.04560  0.49390  1.0000
  C   C230      1.0  0.04670  0.54560  0.00610  1.0000
  C   C231      1.0  0.54670  0.95440  0.50610  1.0000
  C   C232      1.0  0.95330  0.45440  0.99390  1.0000
  C   C233      1.0  0.22760  0.38390  0.34820  1.0000
  C   C234      1.0  0.27240  0.88390  0.15180  1.0000
  C   C235      1.0  0.77240  0.61610  0.65180  1.0000
  C   C236      1.0  0.72760  0.11610  0.84820  1.0000
  H   H129      1.0  0.18340  0.38490  0.38740  1.0000
  H   H130      1.0  0.31660  0.88490  0.11260  1.0000
  H   H131      1.0  0.81660  0.61510  0.61260  1.0000
  H   H132      1.0  0.68340  0.11510  0.88740  1.0000
  C   C237      1.0  0.38010  0.38280  0.31440  1.0000
  C   C238      1.0  0.11990  0.88280  0.18560  1.0000
  C   C239      1.0  0.61990  0.61720  0.68560  1.0000
  C   C240      1.0  0.88010  0.11720  0.81440  1.0000
  H   H133      1.0  0.36020  0.36690  0.26400  1.0000
  H   H134      1.0  0.13980  0.86690  0.23600  1.0000
  H   H135      1.0  0.63980  0.63310  0.73600  1.0000
  H   H136      1.0  0.86020  0.13310  0.76400  1.0000
  H   H137      1.0  0.39810  0.41760  0.30300  1.0000
  H   H138      1.0  0.10190  0.91760  0.19700  1.0000
  H   H139      1.0  0.60190  0.58240  0.69700  1.0000
  H   H140      1.0  0.89810  0.08240  0.80300  1.0000
  H   H141      1.0  0.42800  0.36350  0.33610  1.0000
  H   H142      1.0  0.07200  0.86350  0.16390  1.0000
  H   H143      1.0  0.57200  0.63650  0.66390  1.0000
  H   H144      1.0  0.92800  0.13650  0.83610  1.0000
  C   C241      1.0  0.33000  0.38120  0.45840  1.0000
  C   C242      1.0  0.17000  0.88120  0.04160  1.0000
  C   C243      1.0  0.67000  0.61880  0.54160  1.0000
  C   C244      1.0  0.83000  0.11880  0.95840  1.0000
  H   H145      1.0  0.27750  0.37960  0.49010  1.0000
  H   H146      1.0  0.22250  0.87960  0.00990  1.0000
  H   H147      1.0  0.72250  0.62040  0.50990  1.0000
  H   H148      1.0  0.77750  0.12040  0.99010  1.0000
  H   H149      1.0  0.36410  0.35100  0.46940  1.0000
  H   H150      1.0  0.13590  0.85100  0.03060  1.0000
  H   H151      1.0  0.63590  0.64900  0.53060  1.0000
  H   H152      1.0  0.86410  0.14900  0.96940  1.0000
  H   H153      1.0  0.36200  0.41150  0.47390  1.0000
  H   H154      1.0  0.13800  0.91150  0.02610  1.0000
  H   H155      1.0  0.63800  0.58850  0.52610  1.0000
  H   H156      1.0  0.86200  0.08850  0.97390  1.0000
