data_image0
_chemical_formula_structural       Eu4O32N8C16H16C16H16C8H16
_chemical_formula_sum              "Eu4 O32 N8 C40 H48"
_cell_length_a       9.06
_cell_length_b       10.827
_cell_length_c       25.047
_cell_angle_alpha    90
_cell_angle_beta     90
_cell_angle_gamma    90

_space_group_name_H-M_alt    "P 1"
_space_group_IT_number       1

loop_
  _space_group_symop_operation_xyz
  'x, y, z'

loop_
  _atom_site_type_symbol
  _atom_site_label
  _atom_site_symmetry_multiplicity
  _atom_site_fract_x
  _atom_site_fract_y
  _atom_site_fract_z
  _atom_site_occupancy
  Eu  Eu1       1.0  0.50185  0.50000  0.25000  1.0000
  Eu  Eu2       1.0  0.99815  0.00000  0.75000  1.0000
  Eu  Eu3       1.0  0.49815  0.50000  0.75000  1.0000
  Eu  Eu4       1.0  0.00185  0.00000  0.25000  1.0000
  O   O1        1.0  0.72230  0.35510  0.23446  1.0000
  O   O2        1.0  0.77770  0.14490  0.73446  1.0000
  O   O3        1.0  0.72230  0.64490  0.26554  1.0000
  O   O4        1.0  0.77770  0.85510  0.76554  1.0000
  O   O5        1.0  0.27770  0.64490  0.76554  1.0000
  O   O6        1.0  0.22230  0.85510  0.26554  1.0000
  O   O7        1.0  0.27770  0.35510  0.73446  1.0000
  O   O8        1.0  0.22230  0.14490  0.23446  1.0000
  O   O9        1.0  0.88170  0.20150  0.22164  1.0000
  O   O10       1.0  0.61830  0.29850  0.72164  1.0000
  O   O11       1.0  0.88170  0.79850  0.27836  1.0000
  O   O12       1.0  0.61830  0.70150  0.77836  1.0000
  O   O13       1.0  0.11830  0.79850  0.77836  1.0000
  O   O14       1.0  0.38170  0.70150  0.27836  1.0000
  O   O15       1.0  0.11830  0.20150  0.72164  1.0000
  O   O16       1.0  0.38170  0.29850  0.22164  1.0000
  O   O17       1.0  0.02270  0.05710  0.34938  1.0000
  O   O18       1.0  0.47730  0.44290  0.84938  1.0000
  O   O19       1.0  0.02270  0.94290  0.15062  1.0000
  O   O20       1.0  0.47730  0.55710  0.65062  1.0000
  O   O21       1.0  0.97730  0.94290  0.65062  1.0000
  O   O22       1.0  0.52270  0.55710  0.15062  1.0000
  O   O23       1.0  0.97730  0.05710  0.84938  1.0000
  O   O24       1.0  0.52270  0.44290  0.34938  1.0000
  O   O25       1.0  0.92860  0.05920  0.43167  1.0000
  O   O26       1.0  0.57140  0.44080  0.93167  1.0000
  O   O27       1.0  0.92860  0.94080  0.06833  1.0000
  O   O28       1.0  0.57140  0.55920  0.56833  1.0000
  O   O29       1.0  0.07140  0.94080  0.56833  1.0000
  O   O30       1.0  0.42860  0.55920  0.06833  1.0000
  O   O31       1.0  0.07140  0.05920  0.93167  1.0000
  O   O32       1.0  0.42860  0.44080  0.43167  1.0000
  N   N1        1.0  0.74270  0.06190  0.30413  1.0000
  N   N2        1.0  0.75730  0.43810  0.80413  1.0000
  N   N3        1.0  0.74270  0.93810  0.19587  1.0000
  N   N4        1.0  0.75730  0.56190  0.69587  1.0000
  N   N5        1.0  0.25730  0.93810  0.69587  1.0000
  N   N6        1.0  0.24270  0.56190  0.19587  1.0000
  N   N7        1.0  0.25730  0.06190  0.80413  1.0000
  N   N8        1.0  0.24270  0.43810  0.30413  1.0000
  C   C1        1.0  0.78040  0.25570  0.24708  1.0000
  C   C2        1.0  0.71960  0.24430  0.74708  1.0000
  C   C3        1.0  0.78040  0.74430  0.25292  1.0000
  C   C4        1.0  0.71960  0.75570  0.75292  1.0000
  C   C5        1.0  0.21960  0.74430  0.75292  1.0000
  C   C6        1.0  0.28040  0.75570  0.25292  1.0000
  C   C7        1.0  0.21960  0.25570  0.74708  1.0000
  C   C8        1.0  0.28040  0.24430  0.24708  1.0000
  C   C9        1.0  0.72870  0.19820  0.29997  1.0000
  C   C10       1.0  0.77130  0.30180  0.79997  1.0000
  C   C11       1.0  0.72870  0.80180  0.20003  1.0000
  C   C12       1.0  0.77130  0.69820  0.70003  1.0000
  C   C13       1.0  0.27130  0.80180  0.70003  1.0000
  C   C14       1.0  0.22870  0.69820  0.20003  1.0000
  C   C15       1.0  0.27130  0.19820  0.79997  1.0000
  C   C16       1.0  0.22870  0.30180  0.29997  1.0000
  H   H1        1.0  0.62590  0.22000  0.30540  1.0000
  H   H2        1.0  0.87410  0.28000  0.80540  1.0000
  H   H3        1.0  0.62590  0.78000  0.19460  1.0000
  H   H4        1.0  0.87410  0.72000  0.69460  1.0000
  H   H5        1.0  0.37410  0.78000  0.69460  1.0000
  H   H6        1.0  0.12590  0.72000  0.19460  1.0000
  H   H7        1.0  0.37410  0.22000  0.80540  1.0000
  H   H8        1.0  0.12590  0.28000  0.30540  1.0000
  H   H9        1.0  0.78480  0.23520  0.32880  1.0000
  H   H10       1.0  0.71520  0.26480  0.82880  1.0000
  H   H11       1.0  0.78480  0.76480  0.17120  1.0000
  H   H12       1.0  0.71520  0.73520  0.67120  1.0000
  H   H13       1.0  0.21520  0.76480  0.67120  1.0000
  H   H14       1.0  0.28480  0.73520  0.17120  1.0000
  H   H15       1.0  0.21520  0.23520  0.82880  1.0000
  H   H16       1.0  0.28480  0.26480  0.32880  1.0000
  C   C17       1.0  0.91690  0.05050  0.38114  1.0000
  C   C18       1.0  0.58310  0.44950  0.88114  1.0000
  C   C19       1.0  0.91690  0.94950  0.11886  1.0000
  C   C20       1.0  0.58310  0.55050  0.61886  1.0000
  C   C21       1.0  0.08310  0.94950  0.61886  1.0000
  C   C22       1.0  0.41690  0.55050  0.11886  1.0000
  C   C23       1.0  0.08310  0.05050  0.88114  1.0000
  C   C24       1.0  0.41690  0.44950  0.38114  1.0000
  C   C25       1.0  0.76130  0.02640  0.36020  1.0000
  C   C26       1.0  0.73870  0.47360  0.86020  1.0000
  C   C27       1.0  0.76130  0.97360  0.13980  1.0000
  C   C28       1.0  0.73870  0.52640  0.63980  1.0000
  C   C29       1.0  0.23870  0.97360  0.63980  1.0000
  C   C30       1.0  0.26130  0.52640  0.13980  1.0000
  C   C31       1.0  0.23870  0.02640  0.86020  1.0000
  C   C32       1.0  0.26130  0.47360  0.36020  1.0000
  H   H17       1.0  0.69120  0.07210  0.38180  1.0000
  H   H18       1.0  0.80880  0.42790  0.88180  1.0000
  H   H19       1.0  0.69120  0.92790  0.11820  1.0000
  H   H20       1.0  0.80880  0.57210  0.61820  1.0000
  H   H21       1.0  0.30880  0.92790  0.61820  1.0000
  H   H22       1.0  0.19120  0.57210  0.11820  1.0000
  H   H23       1.0  0.30880  0.07210  0.88180  1.0000
  H   H24       1.0  0.19120  0.42790  0.38180  1.0000
  H   H25       1.0  0.73900  0.93920  0.36400  1.0000
  H   H26       1.0  0.76100  0.56080  0.86400  1.0000
  H   H27       1.0  0.73900  0.06080  0.13600  1.0000
  H   H28       1.0  0.76100  0.43920  0.63600  1.0000
  H   H29       1.0  0.26100  0.06080  0.63600  1.0000
  H   H30       1.0  0.23900  0.43920  0.13600  1.0000
  H   H31       1.0  0.26100  0.93920  0.86400  1.0000
  H   H32       1.0  0.23900  0.56080  0.36400  1.0000
  C   C33       1.0  0.61400  0.99900  0.28046  1.0000
  C   C34       1.0  0.88600  0.50100  0.78046  1.0000
  C   C35       1.0  0.61400  0.00100  0.21954  1.0000
  C   C36       1.0  0.88600  0.49900  0.71954  1.0000
  C   C37       1.0  0.38600  0.00100  0.71954  1.0000
  C   C38       1.0  0.11400  0.49900  0.21954  1.0000
  C   C39       1.0  0.38600  0.99900  0.78046  1.0000
  C   C40       1.0  0.11400  0.50100  0.28046  1.0000
  H   H33       1.0  0.61260  0.91390  0.29250  1.0000
  H   H34       1.0  0.88740  0.58610  0.79250  1.0000
  H   H35       1.0  0.61260  0.08610  0.20750  1.0000
  H   H36       1.0  0.88740  0.41390  0.70750  1.0000
  H   H37       1.0  0.38740  0.08610  0.70750  1.0000
  H   H38       1.0  0.11260  0.41390  0.20750  1.0000
  H   H39       1.0  0.38740  0.91390  0.79250  1.0000
  H   H40       1.0  0.11260  0.58610  0.29250  1.0000
  H   H41       1.0  0.52460  0.03850  0.29330  1.0000
  H   H42       1.0  0.97540  0.46150  0.79330  1.0000
  H   H43       1.0  0.52460  0.96150  0.20670  1.0000
  H   H44       1.0  0.97540  0.53850  0.70670  1.0000
  H   H45       1.0  0.47540  0.96150  0.70670  1.0000
  H   H46       1.0  0.02460  0.53850  0.20670  1.0000
  H   H47       1.0  0.47540  0.03850  0.79330  1.0000
  H   H48       1.0  0.02460  0.46150  0.29330  1.0000
