data_image0
_chemical_formula_structural       Th8P16F4O48C8H4C4H4C8H4C4H4C8H4C4H4C8H4C4H4
_chemical_formula_sum              "Th8 P16 F4 O48 C48 H32"
_cell_length_a       10.1611
_cell_length_b       20.5782
_cell_length_c       10.249
_cell_angle_alpha    90
_cell_angle_beta     95.863
_cell_angle_gamma    90

_space_group_name_H-M_alt    "P 1"
_space_group_IT_number       1

loop_
  _space_group_symop_operation_xyz
  'x, y, z'

loop_
  _atom_site_type_symbol
  _atom_site_label
  _atom_site_symmetry_multiplicity
  _atom_site_fract_x
  _atom_site_fract_y
  _atom_site_fract_z
  _atom_site_occupancy
  Th  Th1       1.0  0.00082  0.59310  0.87186  1.0000
  Th  Th2       1.0  0.99918  0.09310  0.62814  1.0000
  Th  Th3       1.0  0.99918  0.40690  0.12814  1.0000
  Th  Th4       1.0  0.00082  0.90690  0.37186  1.0000
  Th  Th5       1.0  0.00681  0.81248  0.82855  1.0000
  Th  Th6       1.0  0.99319  0.31248  0.67145  1.0000
  Th  Th7       1.0  0.99319  0.18752  0.17145  1.0000
  Th  Th8       1.0  0.00681  0.68752  0.32855  1.0000
  P   P1        1.0  0.19881  0.69143  0.66910  1.0000
  P   P2        1.0  0.80119  0.19143  0.83090  1.0000
  P   P3        1.0  0.80119  0.30857  0.33090  1.0000
  P   P4        1.0  0.19881  0.80857  0.16910  1.0000
  P   P5        1.0  0.80393  0.56469  0.12800  1.0000
  P   P6        1.0  0.19607  0.06469  0.37200  1.0000
  P   P7        1.0  0.19607  0.43531  0.87200  1.0000
  P   P8        1.0  0.80393  0.93531  0.62800  1.0000
  P   P9        1.0  0.81775  0.69370  0.60962  1.0000
  P   P10       1.0  0.18225  0.19370  0.89038  1.0000
  P   P11       1.0  0.18225  0.30630  0.39038  1.0000
  P   P12       1.0  0.81775  0.80630  0.10962  1.0000
  P   P13       1.0  0.18385  0.56297  0.19850  1.0000
  P   P14       1.0  0.81615  0.06297  0.30150  1.0000
  P   P15       1.0  0.81615  0.43703  0.80150  1.0000
  P   P16       1.0  0.18385  0.93703  0.69850  1.0000
  F   F1        1.0  0.99810  0.70440  0.90820  1.0000
  F   F2        1.0  0.00190  0.20440  0.59180  1.0000
  F   F3        1.0  0.00190  0.29560  0.09180  1.0000
  F   F4        1.0  0.99810  0.79560  0.40820  1.0000
  O   O1        1.0  0.17060  0.75640  0.73350  1.0000
  O   O2        1.0  0.82940  0.25640  0.76650  1.0000
  O   O3        1.0  0.82940  0.24360  0.26650  1.0000
  O   O4        1.0  0.17060  0.74360  0.23350  1.0000
  O   O5        1.0  0.17160  0.63260  0.75590  1.0000
  O   O6        1.0  0.82840  0.13260  0.74410  1.0000
  O   O7        1.0  0.82840  0.36740  0.24410  1.0000
  O   O8        1.0  0.17160  0.86740  0.25590  1.0000
  O   O9        1.0  0.12580  0.68460  0.53190  1.0000
  O   O10       1.0  0.87420  0.18460  0.96810  1.0000
  O   O11       1.0  0.87420  0.31540  0.46810  1.0000
  O   O12       1.0  0.12580  0.81540  0.03190  1.0000
  O   O13       1.0  0.82350  0.60100  0.00340  1.0000
  O   O14       1.0  0.17650  0.10100  0.49660  1.0000
  O   O15       1.0  0.17650  0.39900  0.99660  1.0000
  O   O16       1.0  0.82350  0.89900  0.50340  1.0000
  O   O17       1.0  0.85470  0.49520  0.12170  1.0000
  O   O18       1.0  0.14530  0.99520  0.37830  1.0000
  O   O19       1.0  0.14530  0.50480  0.87830  1.0000
  O   O20       1.0  0.85470  0.00480  0.62170  1.0000
  O   O21       1.0  0.86920  0.60010  0.24920  1.0000
  O   O22       1.0  0.13080  0.10010  0.25080  1.0000
  O   O23       1.0  0.13080  0.39990  0.75080  1.0000
  O   O24       1.0  0.86920  0.89990  0.74920  1.0000
  O   O25       1.0  0.87240  0.75670  0.67010  1.0000
  O   O26       1.0  0.12760  0.25670  0.82990  1.0000
  O   O27       1.0  0.12760  0.24330  0.32990  1.0000
  O   O28       1.0  0.87240  0.74330  0.17010  1.0000
  O   O29       1.0  0.87690  0.63430  0.68690  1.0000
  O   O30       1.0  0.12310  0.13430  0.81310  1.0000
  O   O31       1.0  0.12310  0.36570  0.31310  1.0000
  O   O32       1.0  0.87690  0.86570  0.18690  1.0000
  O   O33       1.0  0.83560  0.68770  0.46440  1.0000
  O   O34       1.0  0.16440  0.18770  0.03560  1.0000
  O   O35       1.0  0.16440  0.31230  0.53560  1.0000
  O   O36       1.0  0.83560  0.81230  0.96440  1.0000
  O   O37       1.0  0.13690  0.49350  0.20900  1.0000
  O   O38       1.0  0.86310  0.99350  0.29100  1.0000
  O   O39       1.0  0.86310  0.50650  0.79100  1.0000
  O   O40       1.0  0.13690  0.00650  0.70900  1.0000
  O   O41       1.0  0.10970  0.59940  0.08330  1.0000
  O   O42       1.0  0.89030  0.09940  0.41670  1.0000
  O   O43       1.0  0.89030  0.40060  0.91670  1.0000
  O   O44       1.0  0.10970  0.90060  0.58330  1.0000
  O   O45       1.0  0.16870  0.60160  0.32330  1.0000
  O   O46       1.0  0.83130  0.10160  0.17670  1.0000
  O   O47       1.0  0.83130  0.39840  0.67670  1.0000
  O   O48       1.0  0.16870  0.89840  0.82330  1.0000
  C   C1        1.0  0.62860  0.56260  0.14570  1.0000
  C   C2        1.0  0.37140  0.06260  0.35430  1.0000
  C   C3        1.0  0.37140  0.43740  0.85430  1.0000
  C   C4        1.0  0.62860  0.93740  0.64570  1.0000
  C   C5        1.0  0.55750  0.62100  0.14570  1.0000
  C   C6        1.0  0.44250  0.12100  0.35430  1.0000
  C   C7        1.0  0.44250  0.37900  0.85430  1.0000
  C   C8        1.0  0.55750  0.87900  0.64570  1.0000
  H   H1        1.0  0.60100  0.66110  0.13430  1.0000
  H   H2        1.0  0.39900  0.16110  0.36570  1.0000
  H   H3        1.0  0.39900  0.33890  0.86570  1.0000
  H   H4        1.0  0.60100  0.83890  0.63430  1.0000
  C   C9        1.0  0.42430  0.62010  0.16240  1.0000
  C   C10       1.0  0.57570  0.12010  0.33760  1.0000
  C   C11       1.0  0.57570  0.37990  0.83760  1.0000
  C   C12       1.0  0.42430  0.87990  0.66240  1.0000
  H   H5        1.0  0.37710  0.65990  0.16350  1.0000
  H   H6        1.0  0.62290  0.15990  0.33650  1.0000
  H   H7        1.0  0.62290  0.34010  0.83650  1.0000
  H   H8        1.0  0.37710  0.84010  0.66350  1.0000
  C   C13       1.0  0.35880  0.56210  0.17740  1.0000
  C   C14       1.0  0.64120  0.06210  0.32260  1.0000
  C   C15       1.0  0.64120  0.43790  0.82260  1.0000
  C   C16       1.0  0.35880  0.93790  0.67740  1.0000
  C   C17       1.0  0.42890  0.50380  0.17850  1.0000
  C   C18       1.0  0.57110  0.00380  0.32150  1.0000
  C   C19       1.0  0.57110  0.49620  0.82150  1.0000
  C   C20       1.0  0.42890  0.99620  0.67850  1.0000
  H   H9        1.0  0.38460  0.46400  0.19080  1.0000
  H   H10       1.0  0.61540  0.96400  0.30920  1.0000
  H   H11       1.0  0.61540  0.53600  0.80920  1.0000
  H   H12       1.0  0.38460  0.03600  0.69080  1.0000
  C   C21       1.0  0.56350  0.50350  0.16160  1.0000
  C   C22       1.0  0.43650  0.00350  0.33840  1.0000
  C   C23       1.0  0.43650  0.49650  0.83840  1.0000
  C   C24       1.0  0.56350  0.99650  0.66160  1.0000
  H   H13       1.0  0.61050  0.46360  0.16090  1.0000
  H   H14       1.0  0.38950  0.96360  0.33910  1.0000
  H   H15       1.0  0.38950  0.53640  0.83910  1.0000
  H   H16       1.0  0.61050  0.03640  0.66090  1.0000
  C   C25       1.0  0.37270  0.69020  0.64930  1.0000
  C   C26       1.0  0.62730  0.19020  0.85070  1.0000
  C   C27       1.0  0.62730  0.30980  0.35070  1.0000
  C   C28       1.0  0.37270  0.80980  0.14930  1.0000
  C   C29       1.0  0.46460  0.68080  0.76000  1.0000
  C   C30       1.0  0.53540  0.18080  0.74000  1.0000
  C   C31       1.0  0.53540  0.31920  0.24000  1.0000
  C   C32       1.0  0.46460  0.81920  0.26000  1.0000
  H   H17       1.0  0.43440  0.67410  0.84360  1.0000
  H   H18       1.0  0.56560  0.17410  0.65640  1.0000
  H   H19       1.0  0.56560  0.32590  0.15640  1.0000
  H   H20       1.0  0.43440  0.82590  0.34360  1.0000
  C   C33       1.0  0.59850  0.68140  0.74720  1.0000
  C   C34       1.0  0.40150  0.18140  0.75280  1.0000
  C   C35       1.0  0.40150  0.31860  0.25280  1.0000
  C   C36       1.0  0.59850  0.81860  0.24720  1.0000
  H   H21       1.0  0.66010  0.67450  0.82200  1.0000
  H   H22       1.0  0.33990  0.17450  0.67800  1.0000
  H   H23       1.0  0.33990  0.32550  0.17800  1.0000
  H   H24       1.0  0.66010  0.82550  0.32200  1.0000
  C   C37       1.0  0.64410  0.69220  0.62350  1.0000
  C   C38       1.0  0.35590  0.19220  0.87650  1.0000
  C   C39       1.0  0.35590  0.30780  0.37650  1.0000
  C   C40       1.0  0.64410  0.80780  0.12350  1.0000
  C   C41       1.0  0.55250  0.70020  0.51520  1.0000
  C   C42       1.0  0.44750  0.20020  0.98480  1.0000
  C   C43       1.0  0.44750  0.29980  0.48480  1.0000
  C   C44       1.0  0.55250  0.79980  0.01520  1.0000
  H   H25       1.0  0.58220  0.70570  0.43090  1.0000
  H   H26       1.0  0.41780  0.20570  0.06910  1.0000
  H   H27       1.0  0.41780  0.29430  0.56910  1.0000
  H   H28       1.0  0.58220  0.79430  0.93090  1.0000
  C   C45       1.0  0.41750  0.70010  0.52790  1.0000
  C   C46       1.0  0.58250  0.20010  0.97210  1.0000
  C   C47       1.0  0.58250  0.29990  0.47210  1.0000
  C   C48       1.0  0.41750  0.79990  0.02790  1.0000
  H   H29       1.0  0.35590  0.70680  0.45300  1.0000
  H   H30       1.0  0.64410  0.20680  0.04700  1.0000
  H   H31       1.0  0.64410  0.29320  0.54700  1.0000
  H   H32       1.0  0.35590  0.79320  0.95300  1.0000
