data_image0
_chemical_formula_structural       Cd8Cl8O8C8O8C16H8C8H8O8C8O8C16H8C8H8
_chemical_formula_sum              "Cd8 Cl8 O32 C64 H32"
_cell_length_a       18.4093
_cell_length_b       16.6908
_cell_length_c       14.8012
_cell_angle_alpha    90
_cell_angle_beta     111.104
_cell_angle_gamma    90

_space_group_name_H-M_alt    "P 1"
_space_group_IT_number       1

loop_
  _space_group_symop_operation_xyz
  'x, y, z'

loop_
  _atom_site_type_symbol
  _atom_site_label
  _atom_site_symmetry_multiplicity
  _atom_site_fract_x
  _atom_site_fract_y
  _atom_site_fract_z
  _atom_site_occupancy
  Cd  Cd1       1.0  0.73242  0.66165  0.41514  1.0000
  Cd  Cd2       1.0  0.26758  0.66165  0.08486  1.0000
  Cd  Cd3       1.0  0.23242  0.16165  0.41514  1.0000
  Cd  Cd4       1.0  0.76758  0.16165  0.08486  1.0000
  Cd  Cd5       1.0  0.26758  0.33835  0.58486  1.0000
  Cd  Cd6       1.0  0.73242  0.33835  0.91514  1.0000
  Cd  Cd7       1.0  0.76758  0.83835  0.58486  1.0000
  Cd  Cd8       1.0  0.23242  0.83835  0.91514  1.0000
  Cl  Cl1       1.0  0.71997  0.64271  0.24746  1.0000
  Cl  Cl2       1.0  0.28003  0.64271  0.25254  1.0000
  Cl  Cl3       1.0  0.21997  0.14271  0.24746  1.0000
  Cl  Cl4       1.0  0.78003  0.14271  0.25254  1.0000
  Cl  Cl5       1.0  0.28003  0.35729  0.75254  1.0000
  Cl  Cl6       1.0  0.71997  0.35729  0.74746  1.0000
  Cl  Cl7       1.0  0.78003  0.85729  0.75254  1.0000
  Cl  Cl8       1.0  0.21997  0.85729  0.74746  1.0000
  O   O1        1.0  0.61305  0.64780  0.42496  1.0000
  O   O2        1.0  0.38695  0.64780  0.07504  1.0000
  O   O3        1.0  0.11305  0.14780  0.42496  1.0000
  O   O4        1.0  0.88695  0.14780  0.07504  1.0000
  O   O5        1.0  0.38695  0.35220  0.57504  1.0000
  O   O6        1.0  0.61305  0.35220  0.92496  1.0000
  O   O7        1.0  0.88695  0.85220  0.57504  1.0000
  O   O8        1.0  0.11305  0.85220  0.92496  1.0000
  C   C1        1.0  0.62470  0.57671  0.45702  1.0000
  C   C2        1.0  0.37530  0.57671  0.04298  1.0000
  C   C3        1.0  0.12470  0.07671  0.45702  1.0000
  C   C4        1.0  0.87530  0.07671  0.04298  1.0000
  C   C5        1.0  0.37530  0.42329  0.54298  1.0000
  C   C6        1.0  0.62470  0.42329  0.95702  1.0000
  C   C7        1.0  0.87530  0.92329  0.54298  1.0000
  C   C8        1.0  0.12470  0.92329  0.95702  1.0000
  O   O9        1.0  0.68854  0.54109  0.47291  1.0000
  O   O10       1.0  0.31146  0.54109  0.02709  1.0000
  O   O11       1.0  0.18854  0.04109  0.47291  1.0000
  O   O12       1.0  0.81146  0.04109  0.02709  1.0000
  O   O13       1.0  0.31146  0.45891  0.52709  1.0000
  O   O14       1.0  0.68854  0.45891  0.97291  1.0000
  O   O15       1.0  0.81146  0.95891  0.52709  1.0000
  O   O16       1.0  0.18854  0.95891  0.97291  1.0000
  C   C9        1.0  0.55964  0.53597  0.47767  1.0000
  C   C10       1.0  0.44036  0.53597  0.02233  1.0000
  C   C11       1.0  0.05964  0.03597  0.47767  1.0000
  C   C12       1.0  0.94036  0.03597  0.02233  1.0000
  C   C13       1.0  0.44036  0.46403  0.52233  1.0000
  C   C14       1.0  0.55964  0.46403  0.97767  1.0000
  C   C15       1.0  0.94036  0.96403  0.52233  1.0000
  C   C16       1.0  0.05964  0.96403  0.97767  1.0000
  C   C17       1.0  0.56904  0.45819  0.51485  1.0000
  C   C18       1.0  0.43096  0.45819  0.98515  1.0000
  C   C19       1.0  0.06904  0.95819  0.51485  1.0000
  C   C20       1.0  0.93096  0.95819  0.98515  1.0000
  C   C21       1.0  0.43096  0.54181  0.48515  1.0000
  C   C22       1.0  0.56904  0.54181  0.01485  1.0000
  C   C23       1.0  0.93096  0.04181  0.48515  1.0000
  C   C24       1.0  0.06904  0.04181  0.01485  1.0000
  H   H1        1.0  0.61600  0.42980  0.52450  1.0000
  H   H2        1.0  0.38400  0.42980  0.97550  1.0000
  H   H3        1.0  0.11600  0.92980  0.52450  1.0000
  H   H4        1.0  0.88400  0.92980  0.97550  1.0000
  H   H5        1.0  0.38400  0.57020  0.47550  1.0000
  H   H6        1.0  0.61600  0.57020  0.02450  1.0000
  H   H7        1.0  0.88400  0.07020  0.47550  1.0000
  H   H8        1.0  0.11600  0.07020  0.02450  1.0000
  C   C25       1.0  0.50972  0.42239  0.53763  1.0000
  C   C26       1.0  0.49028  0.42239  0.96237  1.0000
  C   C27       1.0  0.00972  0.92239  0.53763  1.0000
  C   C28       1.0  0.99028  0.92239  0.96237  1.0000
  C   C29       1.0  0.49028  0.57761  0.46237  1.0000
  C   C30       1.0  0.50972  0.57761  0.03763  1.0000
  C   C31       1.0  0.99028  0.07761  0.46237  1.0000
  C   C32       1.0  0.00972  0.07761  0.03763  1.0000
  H   H9        1.0  0.51620  0.36970  0.56360  1.0000
  H   H10       1.0  0.48380  0.36970  0.93640  1.0000
  H   H11       1.0  0.01620  0.86970  0.56360  1.0000
  H   H12       1.0  0.98380  0.86970  0.93640  1.0000
  H   H13       1.0  0.48380  0.63030  0.43640  1.0000
  H   H14       1.0  0.51620  0.63030  0.06360  1.0000
  H   H15       1.0  0.98380  0.13030  0.43640  1.0000
  H   H16       1.0  0.01620  0.13030  0.06360  1.0000
  O   O17       1.0  0.79468  0.69977  0.58633  1.0000
  O   O18       1.0  0.20532  0.69977  0.91367  1.0000
  O   O19       1.0  0.29468  0.19977  0.58633  1.0000
  O   O20       1.0  0.70532  0.19977  0.91367  1.0000
  O   O21       1.0  0.20532  0.30023  0.41367  1.0000
  O   O22       1.0  0.79468  0.30023  0.08633  1.0000
  O   O23       1.0  0.70532  0.80023  0.41367  1.0000
  O   O24       1.0  0.29468  0.80023  0.08633  1.0000
  C   C33       1.0  0.86015  0.68222  0.57924  1.0000
  C   C34       1.0  0.13985  0.68222  0.92076  1.0000
  C   C35       1.0  0.36015  0.18222  0.57924  1.0000
  C   C36       1.0  0.63985  0.18222  0.92076  1.0000
  C   C37       1.0  0.13985  0.31778  0.42076  1.0000
  C   C38       1.0  0.86015  0.31778  0.07924  1.0000
  C   C39       1.0  0.63985  0.81778  0.42076  1.0000
  C   C40       1.0  0.36015  0.81778  0.07924  1.0000
  O   O25       1.0  0.86448  0.65735  0.50138  1.0000
  O   O26       1.0  0.13552  0.65735  0.99862  1.0000
  O   O27       1.0  0.36448  0.15735  0.50138  1.0000
  O   O28       1.0  0.63552  0.15735  0.99862  1.0000
  O   O29       1.0  0.13552  0.34265  0.49862  1.0000
  O   O30       1.0  0.86448  0.34265  0.00138  1.0000
  O   O31       1.0  0.63552  0.84265  0.49862  1.0000
  O   O32       1.0  0.36448  0.84265  0.00138  1.0000
  C   C41       1.0  0.93245  0.68848  0.66743  1.0000
  C   C42       1.0  0.06755  0.68848  0.83257  1.0000
  C   C43       1.0  0.43245  0.18848  0.66743  1.0000
  C   C44       1.0  0.56755  0.18848  0.83257  1.0000
  C   C45       1.0  0.06755  0.31152  0.33257  1.0000
  C   C46       1.0  0.93245  0.31152  0.16743  1.0000
  C   C47       1.0  0.56755  0.81152  0.33257  1.0000
  C   C48       1.0  0.43245  0.81152  0.16743  1.0000
  C   C49       1.0  0.92731  0.69211  0.75908  1.0000
  C   C50       1.0  0.07269  0.69211  0.74092  1.0000
  C   C51       1.0  0.42731  0.19211  0.75908  1.0000
  C   C52       1.0  0.57269  0.19211  0.74092  1.0000
  C   C53       1.0  0.07269  0.30789  0.24092  1.0000
  C   C54       1.0  0.92731  0.30789  0.25908  1.0000
  C   C55       1.0  0.57269  0.80789  0.24092  1.0000
  C   C56       1.0  0.42731  0.80789  0.25908  1.0000
  H   H17       1.0  0.87780  0.69630  0.76520  1.0000
  H   H18       1.0  0.12220  0.69630  0.73480  1.0000
  H   H19       1.0  0.37780  0.19630  0.76520  1.0000
  H   H20       1.0  0.62220  0.19630  0.73480  1.0000
  H   H21       1.0  0.12220  0.30370  0.23480  1.0000
  H   H22       1.0  0.87780  0.30370  0.26520  1.0000
  H   H23       1.0  0.62220  0.80370  0.23480  1.0000
  H   H24       1.0  0.37780  0.80370  0.26520  1.0000
  C   C57       1.0  0.99450  0.68965  0.84139  1.0000
  C   C58       1.0  0.00550  0.68965  0.65861  1.0000
  C   C59       1.0  0.49450  0.18965  0.84139  1.0000
  C   C60       1.0  0.50550  0.18965  0.65861  1.0000
  C   C61       1.0  0.00550  0.31035  0.15861  1.0000
  C   C62       1.0  0.99450  0.31035  0.34139  1.0000
  C   C63       1.0  0.50550  0.81035  0.15861  1.0000
  C   C64       1.0  0.49450  0.81035  0.34139  1.0000
  H   H25       1.0  0.99080  0.68880  0.90370  1.0000
  H   H26       1.0  0.00920  0.68880  0.59630  1.0000
  H   H27       1.0  0.49080  0.18880  0.90370  1.0000
  H   H28       1.0  0.50920  0.18880  0.59630  1.0000
  H   H29       1.0  0.00920  0.31120  0.09630  1.0000
  H   H30       1.0  0.99080  0.31120  0.40370  1.0000
  H   H31       1.0  0.50920  0.81120  0.09630  1.0000
  H   H32       1.0  0.49080  0.81120  0.40370  1.0000
