data_image0
_chemical_formula_structural       U8O64C8H8C8H8C4H4C4H8C4H8C4H4C4H8C4H8C4H8C8H8C12H8C8H8C4H4C4H8C4H8C4H4C4H8C4H8C4H8C8H8C12H8C8H8C4H4C4H8C4H8C4H4C4H8C4H8C4H8C8H8C4
_chemical_formula_sum              "U8 O64 C168 H216"
_cell_length_a       15.9997
_cell_length_b       22.929
_cell_length_c       16.7751
_cell_angle_alpha    90
_cell_angle_beta     95.1369
_cell_angle_gamma    90

_space_group_name_H-M_alt    "P 1"
_space_group_IT_number       1

loop_
  _space_group_symop_operation_xyz
  'x, y, z'

loop_
  _atom_site_type_symbol
  _atom_site_label
  _atom_site_symmetry_multiplicity
  _atom_site_fract_x
  _atom_site_fract_y
  _atom_site_fract_z
  _atom_site_occupancy
  U   U1        1.0  0.50696  0.07140  0.20537  1.0000
  U   U2        1.0  0.49304  0.57140  0.29463  1.0000
  U   U3        1.0  0.49304  0.92860  0.79463  1.0000
  U   U4        1.0  0.50696  0.42860  0.70537  1.0000
  U   U5        1.0  0.04002  0.20322  0.42177  1.0000
  U   U6        1.0  0.95998  0.70322  0.07823  1.0000
  U   U7        1.0  0.95998  0.79678  0.57823  1.0000
  U   U8        1.0  0.04002  0.29678  0.92177  1.0000
  O   O1        1.0  0.56901  0.10311  0.13453  1.0000
  O   O2        1.0  0.43099  0.60311  0.36547  1.0000
  O   O3        1.0  0.43099  0.89689  0.86547  1.0000
  O   O4        1.0  0.56901  0.39689  0.63453  1.0000
  O   O5        1.0  0.44524  0.04168  0.27855  1.0000
  O   O6        1.0  0.55476  0.54168  0.22145  1.0000
  O   O7        1.0  0.55476  0.95832  0.72145  1.0000
  O   O8        1.0  0.44524  0.45832  0.77855  1.0000
  O   O9        1.0  0.04373  0.25790  0.34782  1.0000
  O   O10       1.0  0.95627  0.75790  0.15218  1.0000
  O   O11       1.0  0.95627  0.74210  0.65218  1.0000
  O   O12       1.0  0.04373  0.24210  0.84782  1.0000
  O   O13       1.0  0.03512  0.14806  0.49526  1.0000
  O   O14       1.0  0.96488  0.64806  0.00474  1.0000
  O   O15       1.0  0.96488  0.85194  0.50474  1.0000
  O   O16       1.0  0.03512  0.35194  0.99526  1.0000
  O   O17       1.0  0.60276  0.98927  0.23046  1.0000
  O   O18       1.0  0.39724  0.48927  0.26954  1.0000
  O   O19       1.0  0.39724  0.01073  0.76954  1.0000
  O   O20       1.0  0.60276  0.51073  0.73046  1.0000
  O   O21       1.0  0.63402  0.06698  0.30313  1.0000
  O   O22       1.0  0.36598  0.56698  0.19687  1.0000
  O   O23       1.0  0.36598  0.93302  0.69687  1.0000
  O   O24       1.0  0.63402  0.43302  0.80313  1.0000
  O   O25       1.0  0.93121  0.15319  0.33325  1.0000
  O   O26       1.0  0.06879  0.65319  0.16675  1.0000
  O   O27       1.0  0.06879  0.84681  0.66675  1.0000
  O   O28       1.0  0.93121  0.34681  0.83325  1.0000
  O   O29       1.0  0.06121  0.12970  0.31840  1.0000
  O   O30       1.0  0.93879  0.62970  0.18160  1.0000
  O   O31       1.0  0.93879  0.87030  0.68160  1.0000
  O   O32       1.0  0.06121  0.37030  0.81840  1.0000
  O   O33       1.0  0.52604  0.16605  0.27795  1.0000
  O   O34       1.0  0.47396  0.66605  0.22205  1.0000
  O   O35       1.0  0.47396  0.83395  0.72205  1.0000
  O   O36       1.0  0.52604  0.33395  0.77795  1.0000
  O   O37       1.0  0.41332  0.15809  0.19487  1.0000
  O   O38       1.0  0.58668  0.65809  0.30513  1.0000
  O   O39       1.0  0.58668  0.84191  0.80513  1.0000
  O   O40       1.0  0.41332  0.34191  0.69487  1.0000
  O   O41       1.0  0.19115  0.18007  0.41457  1.0000
  O   O42       1.0  0.80885  0.68007  0.08543  1.0000
  O   O43       1.0  0.80885  0.81993  0.58543  1.0000
  O   O44       1.0  0.19115  0.31993  0.91457  1.0000
  O   O45       1.0  0.16011  0.24534  0.50229  1.0000
  O   O46       1.0  0.83989  0.74534  0.99771  1.0000
  O   O47       1.0  0.83989  0.75466  0.49771  1.0000
  O   O48       1.0  0.16011  0.25466  0.00229  1.0000
  O   O49       1.0  0.38005  0.06138  0.10956  1.0000
  O   O50       1.0  0.61995  0.56138  0.39044  1.0000
  O   O51       1.0  0.61995  0.93862  0.89044  1.0000
  O   O52       1.0  0.38005  0.43862  0.60956  1.0000
  O   O53       1.0  0.47608  0.99356  0.11038  1.0000
  O   O54       1.0  0.52392  0.49356  0.38962  1.0000
  O   O55       1.0  0.52392  0.00644  0.88962  1.0000
  O   O56       1.0  0.47608  0.50644  0.61038  1.0000
  O   O57       1.0  0.00410  0.78264  0.98834  1.0000
  O   O58       1.0  0.99590  0.28264  0.51166  1.0000
  O   O59       1.0  0.99590  0.21736  0.01166  1.0000
  O   O60       1.0  0.00410  0.71736  0.48834  1.0000
  O   O61       1.0  0.10318  0.73013  0.05067  1.0000
  O   O62       1.0  0.89682  0.23013  0.44933  1.0000
  O   O63       1.0  0.89682  0.26987  0.94933  1.0000
  O   O64       1.0  0.10318  0.76987  0.55067  1.0000
  C   C1        1.0  0.80010  0.97625  0.28400  1.0000
  C   C2        1.0  0.19990  0.47625  0.21600  1.0000
  C   C3        1.0  0.19990  0.02375  0.71600  1.0000
  C   C4        1.0  0.80010  0.52375  0.78400  1.0000
  C   C5        1.0  0.83700  0.03735  0.27300  1.0000
  C   C6        1.0  0.16300  0.53735  0.22700  1.0000
  C   C7        1.0  0.16300  0.96265  0.72700  1.0000
  C   C8        1.0  0.83700  0.46265  0.77300  1.0000
  H   H1        1.0  0.79610  0.06150  0.23980  1.0000
  H   H2        1.0  0.20390  0.56150  0.26020  1.0000
  H   H3        1.0  0.20390  0.93850  0.76020  1.0000
  H   H4        1.0  0.79610  0.43850  0.73980  1.0000
  H   H5        1.0  0.84780  0.05650  0.32590  1.0000
  H   H6        1.0  0.15220  0.55650  0.17410  1.0000
  H   H7        1.0  0.15220  0.94350  0.67410  1.0000
  H   H8        1.0  0.84780  0.44350  0.82590  1.0000
  C   C9        1.0  0.91970  0.03321  0.23240  1.0000
  C   C10       1.0  0.08030  0.53321  0.26760  1.0000
  C   C11       1.0  0.08030  0.96679  0.76760  1.0000
  C   C12       1.0  0.91970  0.46679  0.73240  1.0000
  C   C13       1.0  0.90060  0.00335  0.15080  1.0000
  C   C14       1.0  0.09940  0.50335  0.34920  1.0000
  C   C15       1.0  0.09940  0.99665  0.84920  1.0000
  C   C16       1.0  0.90060  0.49665  0.65080  1.0000
  H   H9        1.0  0.95270  0.00070  0.12340  1.0000
  H   H10       1.0  0.04730  0.50070  0.37660  1.0000
  H   H11       1.0  0.04730  0.99930  0.87660  1.0000
  H   H12       1.0  0.95270  0.49930  0.62340  1.0000
  H   H13       1.0  0.85970  0.02710  0.11700  1.0000
  H   H14       1.0  0.14030  0.52710  0.38300  1.0000
  H   H15       1.0  0.14030  0.97290  0.88300  1.0000
  H   H16       1.0  0.85970  0.47290  0.61700  1.0000
  C   C17       1.0  0.86480  0.94216  0.16090  1.0000
  C   C18       1.0  0.13520  0.44216  0.33910  1.0000
  C   C19       1.0  0.13520  0.05784  0.83910  1.0000
  C   C20       1.0  0.86480  0.55784  0.66090  1.0000
  H   H17       1.0  0.85300  0.92360  0.10710  1.0000
  H   H18       1.0  0.14700  0.42360  0.39290  1.0000
  H   H19       1.0  0.14700  0.07640  0.89290  1.0000
  H   H20       1.0  0.85300  0.57640  0.60710  1.0000
  C   C21       1.0  0.78280  0.94758  0.20170  1.0000
  C   C22       1.0  0.21720  0.44758  0.29830  1.0000
  C   C23       1.0  0.21720  0.05242  0.79830  1.0000
  C   C24       1.0  0.78280  0.55242  0.70170  1.0000
  H   H21       1.0  0.74190  0.97140  0.16800  1.0000
  H   H22       1.0  0.25810  0.47140  0.33200  1.0000
  H   H23       1.0  0.25810  0.02860  0.83200  1.0000
  H   H24       1.0  0.74190  0.52860  0.66800  1.0000
  H   H25       1.0  0.75820  0.90840  0.20790  1.0000
  H   H26       1.0  0.24180  0.40840  0.29210  1.0000
  H   H27       1.0  0.24180  0.09160  0.79210  1.0000
  H   H28       1.0  0.75820  0.59160  0.70790  1.0000
  C   C25       1.0  0.86410  0.93877  0.33470  1.0000
  C   C26       1.0  0.13590  0.43877  0.16530  1.0000
  C   C27       1.0  0.13590  0.06123  0.66530  1.0000
  C   C28       1.0  0.86410  0.56123  0.83470  1.0000
  H   H29       1.0  0.87550  0.95650  0.38840  1.0000
  H   H30       1.0  0.12450  0.45650  0.11160  1.0000
  H   H31       1.0  0.12450  0.04350  0.61160  1.0000
  H   H32       1.0  0.87550  0.54350  0.88840  1.0000
  H   H33       1.0  0.84050  0.89940  0.34160  1.0000
  H   H34       1.0  0.15950  0.39940  0.15840  1.0000
  H   H35       1.0  0.15950  0.10060  0.65840  1.0000
  H   H36       1.0  0.84050  0.60060  0.84160  1.0000
  C   C29       1.0  0.94620  0.93381  0.29460  1.0000
  C   C30       1.0  0.05380  0.43381  0.20540  1.0000
  C   C31       1.0  0.05380  0.06619  0.70540  1.0000
  C   C32       1.0  0.94620  0.56619  0.79460  1.0000
  H   H37       1.0  0.98750  0.90970  0.32860  1.0000
  H   H38       1.0  0.01250  0.40970  0.17140  1.0000
  H   H39       1.0  0.01250  0.09030  0.67140  1.0000
  H   H40       1.0  0.98750  0.59030  0.82860  1.0000
  C   C33       1.0  0.98200  0.99528  0.28430  1.0000
  C   C34       1.0  0.01800  0.49528  0.21570  1.0000
  C   C35       1.0  0.01800  0.00472  0.71570  1.0000
  C   C36       1.0  0.98200  0.50472  0.78430  1.0000
  H   H41       1.0  0.99400  0.01370  0.33750  1.0000
  H   H42       1.0  0.00600  0.51370  0.16250  1.0000
  H   H43       1.0  0.00600  0.98630  0.66250  1.0000
  H   H44       1.0  0.99400  0.48630  0.83750  1.0000
  H   H45       1.0  0.03540  0.99250  0.25890  1.0000
  H   H46       1.0  0.96460  0.49250  0.24110  1.0000
  H   H47       1.0  0.96460  0.00750  0.74110  1.0000
  H   H48       1.0  0.03540  0.50750  0.75890  1.0000
  C   C37       1.0  0.92830  0.90519  0.21220  1.0000
  C   C38       1.0  0.07170  0.40519  0.28780  1.0000
  C   C39       1.0  0.07170  0.09481  0.78780  1.0000
  C   C40       1.0  0.92830  0.59481  0.71220  1.0000
  H   H49       1.0  0.98100  0.90190  0.18570  1.0000
  H   H50       1.0  0.01900  0.40190  0.31430  1.0000
  H   H51       1.0  0.01900  0.09810  0.81430  1.0000
  H   H52       1.0  0.98100  0.59810  0.68570  1.0000
  H   H53       1.0  0.90570  0.86550  0.21850  1.0000
  H   H54       1.0  0.09430  0.36550  0.28150  1.0000
  H   H55       1.0  0.09430  0.13450  0.78150  1.0000
  H   H56       1.0  0.90570  0.63450  0.71850  1.0000
  C   C41       1.0  0.72010  0.98097  0.32880  1.0000
  C   C42       1.0  0.27990  0.48097  0.17120  1.0000
  C   C43       1.0  0.27990  0.01903  0.67120  1.0000
  C   C44       1.0  0.72010  0.51903  0.82880  1.0000
  H   H57       1.0  0.70040  0.94110  0.33980  1.0000
  H   H58       1.0  0.29960  0.44110  0.16020  1.0000
  H   H59       1.0  0.29960  0.05890  0.66020  1.0000
  H   H60       1.0  0.70040  0.55890  0.83980  1.0000
  H   H61       1.0  0.73500  0.00010  0.38100  1.0000
  H   H62       1.0  0.26500  0.50010  0.11900  1.0000
  H   H63       1.0  0.26500  0.99990  0.61900  1.0000
  H   H64       1.0  0.73500  0.49990  0.88100  1.0000
  C   C45       1.0  0.64850  0.01410  0.28530  1.0000
  C   C46       1.0  0.35150  0.51410  0.21470  1.0000
  C   C47       1.0  0.35150  0.98590  0.71470  1.0000
  C   C48       1.0  0.64850  0.48590  0.78530  1.0000
  C   C49       1.0  0.95550  0.09420  0.21910  1.0000
  C   C50       1.0  0.04450  0.59420  0.28090  1.0000
  C   C51       1.0  0.04450  0.90580  0.78090  1.0000
  C   C52       1.0  0.95550  0.40580  0.71910  1.0000
  H   H65       1.0  0.00380  0.09030  0.18660  1.0000
  H   H66       1.0  0.99620  0.59030  0.31340  1.0000
  H   H67       1.0  0.99620  0.90970  0.81340  1.0000
  H   H68       1.0  0.00380  0.40970  0.68660  1.0000
  H   H69       1.0  0.91210  0.11760  0.18780  1.0000
  H   H70       1.0  0.08790  0.61760  0.31220  1.0000
  H   H71       1.0  0.08790  0.88240  0.81220  1.0000
  H   H72       1.0  0.91210  0.38240  0.68780  1.0000
  C   C53       1.0  0.98360  0.12708  0.29400  1.0000
  C   C54       1.0  0.01640  0.62708  0.20600  1.0000
  C   C55       1.0  0.01640  0.87292  0.70600  1.0000
  C   C56       1.0  0.98360  0.37292  0.79400  1.0000
  C   C57       1.0  0.43280  0.27460  0.33420  1.0000
  C   C58       1.0  0.56720  0.77460  0.16580  1.0000
  C   C59       1.0  0.56720  0.72540  0.66580  1.0000
  C   C60       1.0  0.43280  0.22540  0.83420  1.0000
  C   C61       1.0  0.37300  0.23427  0.37650  1.0000
  C   C62       1.0  0.62700  0.73427  0.12350  1.0000
  C   C63       1.0  0.62700  0.76573  0.62350  1.0000
  C   C64       1.0  0.37300  0.26573  0.87650  1.0000
  H   H73       1.0  0.31810  0.23210  0.34430  1.0000
  H   H74       1.0  0.68190  0.73210  0.15570  1.0000
  H   H75       1.0  0.68190  0.76790  0.65570  1.0000
  H   H76       1.0  0.31810  0.26790  0.84430  1.0000
  H   H77       1.0  0.39690  0.19440  0.38080  1.0000
  H   H78       1.0  0.60310  0.69440  0.11920  1.0000
  H   H79       1.0  0.60310  0.80560  0.61920  1.0000
  H   H80       1.0  0.39690  0.30560  0.88080  1.0000
  C   C65       1.0  0.36040  0.25758  0.46070  1.0000
  C   C66       1.0  0.63960  0.75758  0.03930  1.0000
  C   C67       1.0  0.63960  0.74242  0.53930  1.0000
  C   C68       1.0  0.36040  0.24242  0.96070  1.0000
  C   C69       1.0  0.44710  0.26092  0.50950  1.0000
  C   C70       1.0  0.55290  0.76092  0.99050  1.0000
  C   C71       1.0  0.55290  0.73908  0.49050  1.0000
  C   C72       1.0  0.44710  0.23908  0.00950  1.0000
  H   H81       1.0  0.44020  0.27570  0.56400  1.0000
  H   H82       1.0  0.55980  0.77570  0.93600  1.0000
  H   H83       1.0  0.55980  0.72430  0.43600  1.0000
  H   H84       1.0  0.44020  0.22430  0.06400  1.0000
  H   H85       1.0  0.47210  0.22140  0.51460  1.0000
  H   H86       1.0  0.52790  0.72140  0.98540  1.0000
  H   H87       1.0  0.52790  0.77860  0.48540  1.0000
  H   H88       1.0  0.47210  0.27860  0.01460  1.0000
  C   C73       1.0  0.50590  0.30155  0.46790  1.0000
  C   C74       1.0  0.49410  0.80155  0.03210  1.0000
  C   C75       1.0  0.49410  0.69845  0.53210  1.0000
  C   C76       1.0  0.50590  0.19845  0.96790  1.0000
  H   H89       1.0  0.56160  0.30370  0.50010  1.0000
  H   H90       1.0  0.43840  0.80370  0.99990  1.0000
  H   H91       1.0  0.43840  0.69630  0.49990  1.0000
  H   H92       1.0  0.56160  0.19630  0.00010  1.0000
  C   C77       1.0  0.51730  0.27717  0.38460  1.0000
  C   C78       1.0  0.48270  0.77717  0.11540  1.0000
  C   C79       1.0  0.48270  0.72283  0.61540  1.0000
  C   C80       1.0  0.51730  0.22283  0.88460  1.0000
  H   H93       1.0  0.55660  0.30230  0.35780  1.0000
  H   H94       1.0  0.44340  0.80230  0.14220  1.0000
  H   H95       1.0  0.44340  0.69770  0.64220  1.0000
  H   H96       1.0  0.55660  0.19770  0.85780  1.0000
  H   H97       1.0  0.54180  0.23750  0.38970  1.0000
  H   H98       1.0  0.45820  0.73750  0.11030  1.0000
  H   H99       1.0  0.45820  0.76250  0.61030  1.0000
  H   H100      1.0  0.54180  0.26250  0.88970  1.0000
  C   C81       1.0  0.39440  0.33599  0.32790  1.0000
  C   C82       1.0  0.60560  0.83599  0.17210  1.0000
  C   C83       1.0  0.60560  0.66401  0.67210  1.0000
  C   C84       1.0  0.39440  0.16401  0.82790  1.0000
  H   H101      1.0  0.33970  0.33460  0.29530  1.0000
  H   H102      1.0  0.66030  0.83460  0.20470  1.0000
  H   H103      1.0  0.66030  0.66540  0.70470  1.0000
  H   H104      1.0  0.33970  0.16540  0.79530  1.0000
  H   H105      1.0  0.43200  0.36240  0.30110  1.0000
  H   H106      1.0  0.56800  0.86240  0.19890  1.0000
  H   H107      1.0  0.56800  0.63760  0.69890  1.0000
  H   H108      1.0  0.43200  0.13760  0.80110  1.0000
  C   C85       1.0  0.38190  0.35945  0.41160  1.0000
  C   C86       1.0  0.61810  0.85945  0.08840  1.0000
  C   C87       1.0  0.61810  0.64055  0.58840  1.0000
  C   C88       1.0  0.38190  0.14055  0.91160  1.0000
  H   H109      1.0  0.35710  0.39950  0.40680  1.0000
  H   H110      1.0  0.64290  0.89950  0.09320  1.0000
  H   H111      1.0  0.64290  0.60050  0.59320  1.0000
  H   H112      1.0  0.35710  0.10050  0.90680  1.0000
  C   C89       1.0  0.32340  0.31950  0.45330  1.0000
  C   C90       1.0  0.67660  0.81950  0.04670  1.0000
  C   C91       1.0  0.67660  0.68050  0.54670  1.0000
  C   C92       1.0  0.32340  0.18050  0.95330  1.0000
  H   H113      1.0  0.26780  0.31820  0.42220  1.0000
  H   H114      1.0  0.73220  0.81820  0.07780  1.0000
  H   H115      1.0  0.73220  0.68180  0.57780  1.0000
  H   H116      1.0  0.26780  0.18180  0.92220  1.0000
  H   H117      1.0  0.31550  0.33500  0.50720  1.0000
  H   H118      1.0  0.68450  0.83500  0.99280  1.0000
  H   H119      1.0  0.68450  0.66500  0.49280  1.0000
  H   H120      1.0  0.31550  0.16500  0.00720  1.0000
  C   C93       1.0  0.46720  0.36222  0.46030  1.0000
  C   C94       1.0  0.53280  0.86222  0.03970  1.0000
  C   C95       1.0  0.53280  0.63778  0.53970  1.0000
  C   C96       1.0  0.46720  0.13778  0.96030  1.0000
  H   H121      1.0  0.50500  0.38860  0.43370  1.0000
  H   H122      1.0  0.49500  0.88860  0.06630  1.0000
  H   H123      1.0  0.49500  0.61140  0.56630  1.0000
  H   H124      1.0  0.50500  0.11140  0.93370  1.0000
  H   H125      1.0  0.46020  0.37800  0.51430  1.0000
  H   H126      1.0  0.53980  0.87800  0.98570  1.0000
  H   H127      1.0  0.53980  0.62200  0.48570  1.0000
  H   H128      1.0  0.46020  0.12200  0.01430  1.0000
  C   C97       1.0  0.44340  0.25304  0.24860  1.0000
  C   C98       1.0  0.55660  0.75304  0.25140  1.0000
  C   C99       1.0  0.55660  0.74696  0.75140  1.0000
  C   C100      1.0  0.44340  0.24696  0.74860  1.0000
  H   H129      1.0  0.39120  0.26180  0.21450  1.0000
  H   H130      1.0  0.60880  0.76180  0.28550  1.0000
  H   H131      1.0  0.60880  0.73820  0.78550  1.0000
  H   H132      1.0  0.39120  0.23820  0.71450  1.0000
  H   H133      1.0  0.48930  0.27550  0.22730  1.0000
  H   H134      1.0  0.51070  0.77550  0.27270  1.0000
  H   H135      1.0  0.51070  0.72450  0.77270  1.0000
  H   H136      1.0  0.48930  0.22450  0.72730  1.0000
  C   C101      1.0  0.46230  0.18931  0.24120  1.0000
  C   C102      1.0  0.53770  0.68931  0.25880  1.0000
  C   C103      1.0  0.53770  0.81069  0.75880  1.0000
  C   C104      1.0  0.46230  0.31069  0.74120  1.0000
  C   C105      1.0  0.30490  0.21585  0.50550  1.0000
  C   C106      1.0  0.69510  0.71585  0.99450  1.0000
  C   C107      1.0  0.69510  0.78415  0.49450  1.0000
  C   C108      1.0  0.30490  0.28415  0.00550  1.0000
  H   H137      1.0  0.32880  0.17610  0.50400  1.0000
  H   H138      1.0  0.67120  0.67610  0.99600  1.0000
  H   H139      1.0  0.67120  0.82390  0.49600  1.0000
  H   H140      1.0  0.32880  0.32390  0.00400  1.0000
  H   H141      1.0  0.30730  0.22800  0.56230  1.0000
  H   H142      1.0  0.69270  0.72800  0.93770  1.0000
  H   H143      1.0  0.69270  0.77200  0.43770  1.0000
  H   H144      1.0  0.30730  0.27200  0.06230  1.0000
  C   C109      1.0  0.21430  0.21346  0.47240  1.0000
  C   C110      1.0  0.78570  0.71346  0.02760  1.0000
  C   C111      1.0  0.78570  0.78654  0.52760  1.0000
  C   C112      1.0  0.21430  0.28654  0.97240  1.0000
  C   C113      1.0  0.28320  0.94356  0.06260  1.0000
  C   C114      1.0  0.71680  0.44356  0.43740  1.0000
  C   C115      1.0  0.71680  0.05644  0.93740  1.0000
  C   C116      1.0  0.28320  0.55644  0.56260  1.0000
  C   C117      1.0  0.24970  0.89492  0.00480  1.0000
  C   C118      1.0  0.75030  0.39492  0.49520  1.0000
  C   C119      1.0  0.75030  0.10508  0.99520  1.0000
  C   C120      1.0  0.24970  0.60508  0.50480  1.0000
  H   H145      1.0  0.22750  0.91240  0.95330  1.0000
  H   H146      1.0  0.77250  0.41240  0.54670  1.0000
  H   H147      1.0  0.77250  0.08760  0.04670  1.0000
  H   H148      1.0  0.22750  0.58760  0.45330  1.0000
  H   H149      1.0  0.29620  0.86840  0.99420  1.0000
  H   H150      1.0  0.70380  0.36840  0.50580  1.0000
  H   H151      1.0  0.70380  0.13160  0.00580  1.0000
  H   H152      1.0  0.29620  0.63160  0.49420  1.0000
  C   C121      1.0  0.17980  0.85993  0.04020  1.0000
  C   C122      1.0  0.82020  0.35993  0.45980  1.0000
  C   C123      1.0  0.82020  0.14007  0.95980  1.0000
  C   C124      1.0  0.17980  0.64007  0.54020  1.0000
  C   C125      1.0  0.21660  0.83224  0.11930  1.0000
  C   C126      1.0  0.78340  0.33224  0.38070  1.0000
  C   C127      1.0  0.78340  0.16776  0.88070  1.0000
  C   C128      1.0  0.21660  0.66776  0.61930  1.0000
  H   H153      1.0  0.17270  0.80950  0.14330  1.0000
  H   H154      1.0  0.82730  0.30950  0.35670  1.0000
  H   H155      1.0  0.82730  0.19050  0.85670  1.0000
  H   H156      1.0  0.17270  0.69050  0.64330  1.0000
  H   H157      1.0  0.26270  0.80530  0.10870  1.0000
  H   H158      1.0  0.73730  0.30530  0.39130  1.0000
  H   H159      1.0  0.73730  0.19470  0.89130  1.0000
  H   H160      1.0  0.26270  0.69470  0.60870  1.0000
  C   C129      1.0  0.25000  0.87966  0.17740  1.0000
  C   C130      1.0  0.75000  0.37966  0.32260  1.0000
  C   C131      1.0  0.75000  0.12034  0.82260  1.0000
  C   C132      1.0  0.25000  0.62034  0.67740  1.0000
  H   H161      1.0  0.27410  0.86110  0.22830  1.0000
  H   H162      1.0  0.72590  0.36110  0.27170  1.0000
  H   H163      1.0  0.72590  0.13890  0.77170  1.0000
  H   H164      1.0  0.27410  0.63890  0.72830  1.0000
  C   C133      1.0  0.31850  0.91527  0.14160  1.0000
  C   C134      1.0  0.68150  0.41527  0.35840  1.0000
  C   C135      1.0  0.68150  0.08473  0.85840  1.0000
  C   C136      1.0  0.31850  0.58473  0.64160  1.0000
  H   H165      1.0  0.36620  0.88950  0.13170  1.0000
  H   H166      1.0  0.63380  0.38950  0.36830  1.0000
  H   H167      1.0  0.63380  0.11050  0.86830  1.0000
  H   H168      1.0  0.36620  0.61050  0.63170  1.0000
  H   H169      1.0  0.33940  0.94590  0.17990  1.0000
  H   H170      1.0  0.66060  0.44590  0.32010  1.0000
  H   H171      1.0  0.66060  0.05410  0.82010  1.0000
  H   H172      1.0  0.33940  0.55410  0.67990  1.0000
  C   C137      1.0  0.21010  0.98390  0.07940  1.0000
  C   C138      1.0  0.78990  0.48390  0.42060  1.0000
  C   C139      1.0  0.78990  0.01610  0.92060  1.0000
  C   C140      1.0  0.21010  0.51610  0.57940  1.0000
  H   H173      1.0  0.23090  0.01550  0.11620  1.0000
  H   H174      1.0  0.76910  0.51550  0.38380  1.0000
  H   H175      1.0  0.76910  0.98450  0.88380  1.0000
  H   H176      1.0  0.23090  0.48450  0.61620  1.0000
  H   H177      1.0  0.18620  0.00190  0.02880  1.0000
  H   H178      1.0  0.81380  0.50190  0.47120  1.0000
  H   H179      1.0  0.81380  0.99810  0.97120  1.0000
  H   H180      1.0  0.18620  0.49810  0.52880  1.0000
  C   C141      1.0  0.14150  0.94902  0.11720  1.0000
  C   C142      1.0  0.85850  0.44902  0.38280  1.0000
  C   C143      1.0  0.85850  0.05098  0.88280  1.0000
  C   C144      1.0  0.14150  0.55098  0.61720  1.0000
  H   H181      1.0  0.09470  0.97580  0.12850  1.0000
  H   H182      1.0  0.90530  0.47580  0.37150  1.0000
  H   H183      1.0  0.90530  0.02420  0.87150  1.0000
  H   H184      1.0  0.09470  0.52420  0.62850  1.0000
  C   C145      1.0  0.10800  0.90161  0.05870  1.0000
  C   C146      1.0  0.89200  0.40161  0.44130  1.0000
  C   C147      1.0  0.89200  0.09839  0.94130  1.0000
  C   C148      1.0  0.10800  0.59839  0.55870  1.0000
  H   H185      1.0  0.08350  0.91980  0.00840  1.0000
  H   H186      1.0  0.91650  0.41980  0.49160  1.0000
  H   H187      1.0  0.91650  0.08020  0.99160  1.0000
  H   H188      1.0  0.08350  0.58020  0.50840  1.0000
  H   H189      1.0  0.06330  0.87930  0.08220  1.0000
  H   H190      1.0  0.93670  0.37930  0.41780  1.0000
  H   H191      1.0  0.93670  0.12070  0.91780  1.0000
  H   H192      1.0  0.06330  0.62070  0.58220  1.0000
  C   C149      1.0  0.17810  0.92072  0.19570  1.0000
  C   C150      1.0  0.82190  0.42072  0.30430  1.0000
  C   C151      1.0  0.82190  0.07928  0.80430  1.0000
  C   C152      1.0  0.17810  0.57928  0.69570  1.0000
  H   H193      1.0  0.13400  0.89840  0.22020  1.0000
  H   H194      1.0  0.86600  0.39840  0.27980  1.0000
  H   H195      1.0  0.86600  0.10160  0.77980  1.0000
  H   H196      1.0  0.13400  0.60160  0.72020  1.0000
  H   H197      1.0  0.19950  0.95120  0.23400  1.0000
  H   H198      1.0  0.80050  0.45120  0.26600  1.0000
  H   H199      1.0  0.80050  0.04880  0.76600  1.0000
  H   H200      1.0  0.19950  0.54880  0.73400  1.0000
  C   C153      1.0  0.35160  0.97775  0.02250  1.0000
  C   C154      1.0  0.64840  0.47775  0.47750  1.0000
  C   C155      1.0  0.64840  0.02225  0.97750  1.0000
  C   C156      1.0  0.35160  0.52225  0.52250  1.0000
  H   H201      1.0  0.38740  0.95000  0.99570  1.0000
  H   H202      1.0  0.61260  0.45000  0.50430  1.0000
  H   H203      1.0  0.61260  0.05000  0.00430  1.0000
  H   H204      1.0  0.38740  0.55000  0.49570  1.0000
  H   H205      1.0  0.32460  0.00410  0.98120  1.0000
  H   H206      1.0  0.67540  0.50410  0.51880  1.0000
  H   H207      1.0  0.67540  0.99590  0.01880  1.0000
  H   H208      1.0  0.32460  0.49590  0.48120  1.0000
  C   C157      1.0  0.40550  0.01305  0.08290  1.0000
  C   C158      1.0  0.59450  0.51305  0.41710  1.0000
  C   C159      1.0  0.59450  0.98695  0.91710  1.0000
  C   C160      1.0  0.40550  0.48695  0.58290  1.0000
  C   C161      1.0  0.14790  0.81346  0.97860  1.0000
  C   C162      1.0  0.85210  0.31346  0.52140  1.0000
  C   C163      1.0  0.85210  0.18654  0.02140  1.0000
  C   C164      1.0  0.14790  0.68654  0.47860  1.0000
  H   H209      1.0  0.12470  0.83340  0.92920  1.0000
  H   H210      1.0  0.87530  0.33340  0.57080  1.0000
  H   H211      1.0  0.87530  0.16660  0.07080  1.0000
  H   H212      1.0  0.12470  0.66660  0.42920  1.0000
  H   H213      1.0  0.19610  0.78960  0.96490  1.0000
  H   H214      1.0  0.80390  0.28960  0.53510  1.0000
  H   H215      1.0  0.80390  0.21040  0.03510  1.0000
  H   H216      1.0  0.19610  0.71040  0.46490  1.0000
  C   C165      1.0  0.08160  0.77331  0.00640  1.0000
  C   C166      1.0  0.91840  0.27331  0.49360  1.0000
  C   C167      1.0  0.91840  0.22669  0.99360  1.0000
  C   C168      1.0  0.08160  0.72669  0.50640  1.0000
