data_image0
_chemical_formula_structural       Dy4O32N4C4H8C8H4C16H4C8H8C12H4C12H4C8H4C4H4C4H4C4H4C8H4C4H4C4H4
_chemical_formula_sum              "Dy4 O32 N4 C96 H60"
_cell_length_a       15.7583
_cell_length_b       9.7867
_cell_length_c       20.955
_cell_angle_alpha    90
_cell_angle_beta     108.1
_cell_angle_gamma    90

_space_group_name_H-M_alt    "P 1"
_space_group_IT_number       1

loop_
  _space_group_symop_operation_xyz
  'x, y, z'

loop_
  _atom_site_type_symbol
  _atom_site_label
  _atom_site_symmetry_multiplicity
  _atom_site_fract_x
  _atom_site_fract_y
  _atom_site_fract_z
  _atom_site_occupancy
  Dy  Dy1       1.0  0.39557  0.04476  0.53369  1.0000
  Dy  Dy2       1.0  0.60443  0.04476  0.96631  1.0000
  Dy  Dy3       1.0  0.60443  0.95524  0.46631  1.0000
  Dy  Dy4       1.0  0.39557  0.95524  0.03369  1.0000
  O   O1        1.0  0.39094  0.16710  0.43620  1.0000
  O   O2        1.0  0.60906  0.16710  0.06380  1.0000
  O   O3        1.0  0.60906  0.83290  0.56380  1.0000
  O   O4        1.0  0.39094  0.83290  0.93620  1.0000
  O   O5        1.0  0.50889  0.77740  0.41215  1.0000
  O   O6        1.0  0.49111  0.77740  0.08785  1.0000
  O   O7        1.0  0.49111  0.22260  0.58785  1.0000
  O   O8        1.0  0.50889  0.22260  0.91215  1.0000
  O   O9        1.0  0.42876  0.88290  0.46701  1.0000
  O   O10       1.0  0.57124  0.88290  0.03299  1.0000
  O   O11       1.0  0.57124  0.11710  0.53299  1.0000
  O   O12       1.0  0.42876  0.11710  0.96701  1.0000
  O   O13       1.0  0.49130  0.07990  0.39153  1.0000
  O   O14       1.0  0.50870  0.07990  0.10847  1.0000
  O   O15       1.0  0.50870  0.92010  0.60847  1.0000
  O   O16       1.0  0.49130  0.92010  0.89153  1.0000
  O   O17       1.0  0.75833  0.03430  0.03984  1.0000
  O   O18       1.0  0.24167  0.03430  0.46016  1.0000
  O   O19       1.0  0.24167  0.96570  0.96016  1.0000
  O   O20       1.0  0.75833  0.96570  0.53984  1.0000
  O   O21       1.0  0.37487  0.94185  0.14564  1.0000
  O   O22       1.0  0.62513  0.94185  0.35436  1.0000
  O   O23       1.0  0.62513  0.05815  0.85436  1.0000
  O   O24       1.0  0.37487  0.05815  0.64564  1.0000
  O   O25       1.0  0.71763  0.21790  0.97686  1.0000
  O   O26       1.0  0.28237  0.21790  0.52314  1.0000
  O   O27       1.0  0.28237  0.78210  0.02314  1.0000
  O   O28       1.0  0.71763  0.78210  0.47686  1.0000
  O   O29       1.0  0.31862  0.12190  0.08438  1.0000
  O   O30       1.0  0.68138  0.12190  0.41562  1.0000
  O   O31       1.0  0.68138  0.87810  0.91562  1.0000
  O   O32       1.0  0.31862  0.87810  0.58438  1.0000
  N   N1        1.0  0.15677  0.36560  0.23145  1.0000
  N   N2        1.0  0.84323  0.36560  0.26855  1.0000
  N   N3        1.0  0.84323  0.63440  0.76855  1.0000
  N   N4        1.0  0.15677  0.63440  0.73145  1.0000
  C   C1        1.0  0.11093  0.41840  0.16475  1.0000
  C   C2        1.0  0.88907  0.41840  0.33525  1.0000
  C   C3        1.0  0.88907  0.58160  0.83525  1.0000
  C   C4        1.0  0.11093  0.58160  0.66475  1.0000
  H   H1        1.0  0.15150  0.41140  0.13710  1.0000
  H   H2        1.0  0.84850  0.41140  0.36290  1.0000
  H   H3        1.0  0.84850  0.58860  0.86290  1.0000
  H   H4        1.0  0.15150  0.58860  0.63710  1.0000
  H   H5        1.0  0.09790  0.51650  0.16860  1.0000
  H   H6        1.0  0.90210  0.51650  0.33140  1.0000
  H   H7        1.0  0.90210  0.48350  0.83140  1.0000
  H   H8        1.0  0.09790  0.48350  0.66860  1.0000
  C   C5        1.0  0.43586  0.79770  0.42356  1.0000
  C   C6        1.0  0.56414  0.79770  0.07644  1.0000
  C   C7        1.0  0.56414  0.20230  0.57644  1.0000
  C   C8        1.0  0.43586  0.20230  0.92356  1.0000
  C   C9        1.0  0.28208  0.24320  0.30724  1.0000
  C   C10       1.0  0.71792  0.24320  0.19276  1.0000
  C   C11       1.0  0.71792  0.75680  0.69276  1.0000
  C   C12       1.0  0.28208  0.75680  0.80724  1.0000
  H   H9        1.0  0.26950  0.28240  0.34480  1.0000
  H   H10       1.0  0.73050  0.28240  0.15520  1.0000
  H   H11       1.0  0.73050  0.71760  0.65520  1.0000
  H   H12       1.0  0.26950  0.71760  0.84480  1.0000
  C   C13       1.0  0.33817  0.05710  0.13985  1.0000
  C   C14       1.0  0.66183  0.05710  0.36015  1.0000
  C   C15       1.0  0.66183  0.94290  0.86015  1.0000
  C   C16       1.0  0.33817  0.94290  0.63985  1.0000
  C   C17       1.0  0.02409  0.34490  0.12865  1.0000
  C   C18       1.0  0.97591  0.34490  0.37135  1.0000
  C   C19       1.0  0.97591  0.65510  0.87135  1.0000
  C   C20       1.0  0.02409  0.65510  0.62865  1.0000
  C   C21       1.0  0.41693  0.13290  0.38735  1.0000
  C   C22       1.0  0.58307  0.13290  0.11265  1.0000
  C   C23       1.0  0.58307  0.86710  0.61265  1.0000
  C   C24       1.0  0.41693  0.86710  0.88735  1.0000
  C   C25       1.0  0.96646  0.40410  0.07124  1.0000
  C   C26       1.0  0.03354  0.40410  0.42876  1.0000
  C   C27       1.0  0.03354  0.59590  0.92876  1.0000
  C   C28       1.0  0.96646  0.59590  0.57124  1.0000
  H   H13       1.0  0.98240  0.48800  0.05520  1.0000
  H   H14       1.0  0.01760  0.48800  0.44480  1.0000
  H   H15       1.0  0.01760  0.51200  0.94480  1.0000
  H   H16       1.0  0.98240  0.51200  0.55520  1.0000
  C   C29       1.0  0.21585  0.54410  0.31867  1.0000
  C   C30       1.0  0.78415  0.54410  0.18133  1.0000
  C   C31       1.0  0.78415  0.45590  0.68133  1.0000
  C   C32       1.0  0.21585  0.45590  0.81867  1.0000
  C   C33       1.0  0.14353  0.44020  0.28720  1.0000
  C   C34       1.0  0.85647  0.44020  0.21280  1.0000
  C   C35       1.0  0.85647  0.55980  0.71280  1.0000
  C   C36       1.0  0.14353  0.55980  0.78720  1.0000
  H   H17       1.0  0.14040  0.37410  0.32210  1.0000
  H   H18       1.0  0.85960  0.37410  0.17790  1.0000
  H   H19       1.0  0.85960  0.62590  0.67790  1.0000
  H   H20       1.0  0.14040  0.62590  0.82210  1.0000
  H   H21       1.0  0.08540  0.48810  0.27140  1.0000
  H   H22       1.0  0.91460  0.48810  0.22860  1.0000
  H   H23       1.0  0.91460  0.51190  0.72860  1.0000
  H   H24       1.0  0.08540  0.51190  0.77140  1.0000
  C   C37       1.0  0.77457  0.15270  0.02366  1.0000
  C   C38       1.0  0.22543  0.15270  0.47634  1.0000
  C   C39       1.0  0.22543  0.84730  0.97634  1.0000
  C   C40       1.0  0.77457  0.84730  0.52366  1.0000
  C   C41       1.0  0.22667  0.27350  0.24153  1.0000
  C   C42       1.0  0.77333  0.27350  0.25847  1.0000
  C   C43       1.0  0.77333  0.72650  0.75847  1.0000
  C   C44       1.0  0.22667  0.72650  0.74153  1.0000
  C   C45       1.0  0.35457  0.65660  0.32502  1.0000
  C   C46       1.0  0.64543  0.65660  0.17498  1.0000
  C   C47       1.0  0.64543  0.34340  0.67498  1.0000
  C   C48       1.0  0.35457  0.34340  0.82502  1.0000
  H   H25       1.0  0.40180  0.67290  0.30670  1.0000
  H   H26       1.0  0.59820  0.67290  0.19330  1.0000
  H   H27       1.0  0.59820  0.32710  0.69330  1.0000
  H   H28       1.0  0.40180  0.32710  0.80670  1.0000
  C   C49       1.0  0.35494  0.15640  0.31727  1.0000
  C   C50       1.0  0.64506  0.15640  0.18273  1.0000
  C   C51       1.0  0.64506  0.84360  0.68273  1.0000
  C   C52       1.0  0.35494  0.84360  0.81727  1.0000
  C   C53       1.0  0.86194  0.21910  0.05983  1.0000
  C   C54       1.0  0.13806  0.21910  0.44017  1.0000
  C   C55       1.0  0.13806  0.78090  0.94017  1.0000
  C   C56       1.0  0.86194  0.78090  0.55983  1.0000
  C   C57       1.0  0.88601  0.34270  0.03707  1.0000
  C   C58       1.0  0.11399  0.34270  0.46293  1.0000
  C   C59       1.0  0.11399  0.65730  0.96293  1.0000
  C   C60       1.0  0.88601  0.65730  0.53707  1.0000
  H   H29       1.0  0.84710  0.38470  0.99800  1.0000
  H   H30       1.0  0.15290  0.38470  0.50200  1.0000
  H   H31       1.0  0.15290  0.61530  0.00200  1.0000
  H   H32       1.0  0.84710  0.61530  0.49800  1.0000
  C   C61       1.0  0.35629  0.71640  0.38520  1.0000
  C   C62       1.0  0.64371  0.71640  0.11480  1.0000
  C   C63       1.0  0.64371  0.28360  0.61480  1.0000
  C   C64       1.0  0.35629  0.28360  0.88520  1.0000
  C   C65       1.0  0.28390  0.57270  0.29141  1.0000
  C   C66       1.0  0.71610  0.57270  0.20859  1.0000
  C   C67       1.0  0.71610  0.42730  0.70859  1.0000
  C   C68       1.0  0.28390  0.42730  0.79141  1.0000
  H   H33       1.0  0.28190  0.53430  0.24930  1.0000
  H   H34       1.0  0.71810  0.53430  0.25070  1.0000
  H   H35       1.0  0.71810  0.46570  0.75070  1.0000
  H   H36       1.0  0.28190  0.46570  0.74930  1.0000
  C   C69       1.0  0.37306  0.09360  0.26329  1.0000
  C   C70       1.0  0.62694  0.09360  0.23671  1.0000
  C   C71       1.0  0.62694  0.90640  0.73671  1.0000
  C   C72       1.0  0.37306  0.90640  0.76329  1.0000
  H   H37       1.0  0.42240  0.03320  0.27070  1.0000
  H   H38       1.0  0.57760  0.03320  0.22930  1.0000
  H   H39       1.0  0.57760  0.96680  0.72930  1.0000
  H   H40       1.0  0.42240  0.96680  0.77070  1.0000
  C   C73       1.0  0.00009  0.22160  0.15147  1.0000
  C   C74       1.0  0.99991  0.22160  0.34853  1.0000
  C   C75       1.0  0.99991  0.77840  0.84853  1.0000
  C   C76       1.0  0.00009  0.77840  0.65147  1.0000
  H   H41       1.0  0.03890  0.18010  0.19070  1.0000
  H   H42       1.0  0.96110  0.18010  0.30930  1.0000
  H   H43       1.0  0.96110  0.81990  0.80930  1.0000
  H   H44       1.0  0.03890  0.81990  0.69070  1.0000
  C   C77       1.0  0.21580  0.61010  0.37708  1.0000
  C   C78       1.0  0.78420  0.61010  0.12292  1.0000
  C   C79       1.0  0.78420  0.38990  0.62292  1.0000
  C   C80       1.0  0.21580  0.38990  0.87708  1.0000
  H   H45       1.0  0.16810  0.59510  0.39490  1.0000
  H   H46       1.0  0.83190  0.59510  0.10510  1.0000
  H   H47       1.0  0.83190  0.40490  0.60510  1.0000
  H   H48       1.0  0.16810  0.40490  0.89490  1.0000
  C   C81       1.0  0.31796  0.12040  0.19843  1.0000
  C   C82       1.0  0.68204  0.12040  0.30157  1.0000
  C   C83       1.0  0.68204  0.87960  0.80157  1.0000
  C   C84       1.0  0.31796  0.87960  0.69843  1.0000
  C   C85       1.0  0.91945  0.15880  0.11704  1.0000
  C   C86       1.0  0.08055  0.15880  0.38296  1.0000
  C   C87       1.0  0.08055  0.84120  0.88296  1.0000
  C   C88       1.0  0.91945  0.84120  0.61704  1.0000
  H   H49       1.0  0.90370  0.07440  0.13280  1.0000
  H   H50       1.0  0.09630  0.07440  0.36720  1.0000
  H   H51       1.0  0.09630  0.92560  0.86720  1.0000
  H   H52       1.0  0.90370  0.92560  0.63280  1.0000
  C   C89       1.0  0.24578  0.21020  0.18777  1.0000
  C   C90       1.0  0.75422  0.21020  0.31223  1.0000
  C   C91       1.0  0.75422  0.78980  0.81223  1.0000
  C   C92       1.0  0.24578  0.78980  0.68777  1.0000
  H   H53       1.0  0.20910  0.22840  0.14320  1.0000
  H   H54       1.0  0.79090  0.22840  0.35680  1.0000
  H   H55       1.0  0.79090  0.77160  0.85680  1.0000
  H   H56       1.0  0.20910  0.77160  0.64320  1.0000
  C   C93       1.0  0.28510  0.69820  0.40995  1.0000
  C   C94       1.0  0.71490  0.69820  0.09005  1.0000
  C   C95       1.0  0.71490  0.30180  0.59005  1.0000
  C   C96       1.0  0.28510  0.30180  0.90995  1.0000
  H   H57       1.0  0.28350  0.74550  0.44910  1.0000
  H   H58       1.0  0.71650  0.74550  0.05090  1.0000
  H   H59       1.0  0.71650  0.25450  0.55090  1.0000
  H   H60       1.0  0.28350  0.25450  0.94910  1.0000
