data_image0
_chemical_formula_structural       Ag2O4N4Mo2C8O10N2H2N2C2H2N4C2Mo4H2NiH2C16O10H6O2N2H6O2H12N2O4H6
_chemical_formula_sum              "Ag2 O32 N16 Mo6 C28 H38 Ni1"
_cell_length_a       10.4692
_cell_length_b       12.1347
_cell_length_c       14.4977
_cell_angle_alpha    85.47
_cell_angle_beta     77.104
_cell_angle_gamma    77.693

_space_group_name_H-M_alt    "P 1"
_space_group_IT_number       1

loop_
  _space_group_symop_operation_xyz
  'x, y, z'

loop_
  _atom_site_type_symbol
  _atom_site_label
  _atom_site_symmetry_multiplicity
  _atom_site_fract_x
  _atom_site_fract_y
  _atom_site_fract_z
  _atom_site_occupancy
  Ag  Ag1       1.0  0.25193  0.48869  0.82604  1.0000
  Ag  Ag2       1.0  0.74807  0.51131  0.17396  1.0000
  O   O1        1.0  0.05990  0.63690  0.90140  1.0000
  O   O2        1.0  0.94010  0.36310  0.09860  1.0000
  O   O3        1.0  0.11280  0.33290  0.87660  1.0000
  O   O4        1.0  0.88720  0.66710  0.12340  1.0000
  N   N1        1.0  0.29290  0.44920  0.96950  1.0000
  N   N2        1.0  0.70710  0.55080  0.03050  1.0000
  N   N3        1.0  0.28140  0.54180  0.67670  1.0000
  N   N4        1.0  0.71860  0.45820  0.32330  1.0000
  Mo  Mo1       1.0  0.17728  0.19429  0.90183  1.0000
  Mo  Mo2       1.0  0.82272  0.80571  0.09817  1.0000
  C   C1        1.0  0.19820  0.47290  0.04850  1.0000
  C   C2        1.0  0.80180  0.52710  0.95150  1.0000
  C   C3        1.0  0.40360  0.39600  0.00120  1.0000
  C   C4        1.0  0.59640  0.60400  0.99880  1.0000
  C   C5        1.0  0.26210  0.65120  0.65170  1.0000
  C   C6        1.0  0.73790  0.34880  0.34830  1.0000
  C   C7        1.0  0.31680  0.48810  0.59280  1.0000
  C   C8        1.0  0.68320  0.51190  0.40720  1.0000
  O   O5        1.0  0.34670  0.17820  0.86730  1.0000
  O   O6        1.0  0.65330  0.82180  0.13270  1.0000
  O   O7        1.0  0.13740  0.12960  0.79660  1.0000
  O   O8        1.0  0.86260  0.87040  0.20340  1.0000
  O   O9        1.0  0.97200  0.16740  0.98254  1.0000
  O   O10       1.0  0.02800  0.83260  0.01746  1.0000
  O   O11       1.0  0.16890  0.19780  0.03810  1.0000
  O   O12       1.0  0.83110  0.80220  0.96190  1.0000
  O   O13       1.0  0.18780  0.00510  0.93441  1.0000
  O   O14       1.0  0.81220  0.99490  0.06559  1.0000
  N   N5        1.0  0.24290  0.43820  0.12770  1.0000
  N   N6        1.0  0.75710  0.56180  0.87230  1.0000
  H   H1        1.0  0.10880  0.51040  0.04840  1.0000
  H   H2        1.0  0.89120  0.48960  0.95160  1.0000
  N   N7        1.0  0.52790  0.35820  0.94670  1.0000
  N   N8        1.0  0.47210  0.64180  0.05330  1.0000
  C   C9        1.0  0.37680  0.38800  0.09920  1.0000
  C   C10       1.0  0.62320  0.61200  0.90080  1.0000
  H   H3        1.0  0.23580  0.70990  0.69580  1.0000
  H   H4        1.0  0.76420  0.29010  0.30420  1.0000
  N   N9        1.0  0.28360  0.66950  0.55830  1.0000
  N   N10       1.0  0.71640  0.33050  0.44170  1.0000
  N   N11       1.0  0.34830  0.37350  0.57920  1.0000
  N   N12       1.0  0.65170  0.62650  0.42080  1.0000
  C   C11       1.0  0.31940  0.56500  0.51910  1.0000
  C   C12       1.0  0.68060  0.43500  0.48090  1.0000
  Mo  Mo3       1.0  0.19061  0.96678  0.78253  1.0000
  Mo  Mo4       1.0  0.80939  0.03322  0.21747  1.0000
  Mo  Mo5       1.0  0.99626  0.22270  0.12267  1.0000
  Mo  Mo6       1.0  0.00374  0.77730  0.87733  1.0000
  H   H5        1.0  0.89100  0.21300  0.96400  1.0000
  H   H6        1.0  0.10900  0.78700  0.03600  1.0000
  Ni  Ni1       1.0  0.00000  0.00000  1.00000  1.0000
  H   H7        1.0  0.26400  0.97800  0.96500  1.0000
  H   H8        1.0  0.73600  0.02200  0.03500  1.0000
  C   C13       1.0  0.16480  0.45550  0.22520  1.0000
  C   C14       1.0  0.83520  0.54450  0.77480  1.0000
  C   C15       1.0  0.63190  0.31140  0.99050  1.0000
  C   C16       1.0  0.36810  0.68860  0.00950  1.0000
  C   C17       1.0  0.55350  0.36500  0.84320  1.0000
  C   C18       1.0  0.44650  0.63500  0.15680  1.0000
  C   C19       1.0  0.47820  0.33650  0.14930  1.0000
  C   C20       1.0  0.52180  0.66350  0.85070  1.0000
  C   C21       1.0  0.26760  0.77920  0.50640  1.0000
  C   C22       1.0  0.73240  0.22080  0.49360  1.0000
  C   C23       1.0  0.33930  0.29150  0.65890  1.0000
  C   C24       1.0  0.66070  0.70850  0.34110  1.0000
  C   C25       1.0  0.38320  0.33540  0.48800  1.0000
  C   C26       1.0  0.61680  0.66460  0.51200  1.0000
  C   C27       1.0  0.35570  0.53370  0.42120  1.0000
  C   C28       1.0  0.64430  0.46630  0.57880  1.0000
  O   O15       1.0  0.97840  0.96940  0.87132  1.0000
  O   O16       1.0  0.02160  0.03060  0.12868  1.0000
  O   O17       1.0  0.36040  0.94810  0.75130  1.0000
  O   O18       1.0  0.63960  0.05190  0.24870  1.0000
  O   O19       1.0  0.18150  0.81390  0.83420  1.0000
  O   O20       1.0  0.81850  0.18610  0.16580  1.0000
  O   O21       1.0  0.13830  0.96230  0.67960  1.0000
  O   O22       1.0  0.86170  0.03770  0.32040  1.0000
  O   O23       1.0  0.04670  0.21780  0.22750  1.0000
  O   O24       1.0  0.95330  0.78220  0.77250  1.0000
  H   H9        1.0  0.22100  0.42200  0.27000  1.0000
  H   H10       1.0  0.77900  0.57800  0.73000  1.0000
  H   H11       1.0  0.08730  0.41940  0.23480  1.0000
  H   H12       1.0  0.91270  0.58060  0.76520  1.0000
  H   H13       1.0  0.13410  0.53650  0.23570  1.0000
  H   H14       1.0  0.86590  0.46350  0.76430  1.0000
  O   O25       1.0  0.74580  0.28220  0.94460  1.0000
  O   O26       1.0  0.25420  0.71780  0.05540  1.0000
  N   N13       1.0  0.60110  0.30220  0.08840  1.0000
  N   N14       1.0  0.39890  0.69780  0.91160  1.0000
  H   H15       1.0  0.64810  0.33410  0.81740  1.0000
  H   H16       1.0  0.35190  0.66590  0.18260  1.0000
  H   H17       1.0  0.53140  0.44400  0.82170  1.0000
  H   H18       1.0  0.46860  0.55600  0.17830  1.0000
  H   H19       1.0  0.49800  0.32140  0.82100  1.0000
  H   H20       1.0  0.50200  0.67860  0.17900  1.0000
  O   O27       1.0  0.46720  0.32220  0.23530  1.0000
  O   O28       1.0  0.53280  0.67780  0.76470  1.0000
  H   H21       1.0  0.29140  0.76700  0.43820  1.0000
  H   H22       1.0  0.70860  0.23300  0.56180  1.0000
  H   H23       1.0  0.32640  0.82420  0.52270  1.0000
  H   H24       1.0  0.67360  0.17580  0.47730  1.0000
  H   H25       1.0  0.17440  0.81950  0.52390  1.0000
  H   H26       1.0  0.82560  0.18050  0.47610  1.0000
  H   H27       1.0  0.36550  0.21490  0.63490  1.0000
  H   H28       1.0  0.63450  0.78510  0.36510  1.0000
  H   H29       1.0  0.24710  0.30330  0.69580  1.0000
  H   H30       1.0  0.75290  0.69670  0.30420  1.0000
  H   H31       1.0  0.39930  0.30140  0.69940  1.0000
  H   H32       1.0  0.60070  0.69860  0.30060  1.0000
  N   N15       1.0  0.38480  0.41710  0.41560  1.0000
  N   N16       1.0  0.61520  0.58290  0.58440  1.0000
  O   O29       1.0  0.41320  0.23530  0.47060  1.0000
  O   O30       1.0  0.58680  0.76470  0.52940  1.0000
  O   O31       1.0  0.35950  0.59510  0.35140  1.0000
  O   O32       1.0  0.64050  0.40490  0.64860  1.0000
  H   H33       1.0  0.91200  0.01600  0.83800  1.0000
  H   H34       1.0  0.08800  0.98400  0.16200  1.0000
  H   H35       1.0  0.66790  0.27060  0.11550  1.0000
  H   H36       1.0  0.33210  0.72940  0.88450  1.0000
  H   H37       1.0  0.40750  0.39140  0.35790  1.0000
  H   H38       1.0  0.59250  0.60860  0.64210  1.0000
