data_image0
_chemical_formula_structural       Co2O4C6H2C4H2C2H2N4H2C2H2C2H2C2H2C4O4C2O4
_chemical_formula_sum              "Co2 O12 C24 H14 N4"
_cell_length_a       7.677
_cell_length_b       16.387
_cell_length_c       8.2916
_cell_angle_alpha    90
_cell_angle_beta     116.458
_cell_angle_gamma    90

_space_group_name_H-M_alt    "P 1"
_space_group_IT_number       1

loop_
  _space_group_symop_operation_xyz
  'x, y, z'

loop_
  _atom_site_type_symbol
  _atom_site_label
  _atom_site_symmetry_multiplicity
  _atom_site_fract_x
  _atom_site_fract_y
  _atom_site_fract_z
  _atom_site_occupancy
  Co  Co1       1.0  0.76451  0.45055  0.86683  1.0000
  Co  Co2       1.0  0.23549  0.95055  0.13317  1.0000
  O   O1        1.0  0.58210  0.36525  0.68700  1.0000
  O   O2        1.0  0.41790  0.86525  0.31300  1.0000
  O   O3        1.0  0.67760  0.33100  0.96980  1.0000
  O   O4        1.0  0.32240  0.83100  0.03020  1.0000
  C   C1        1.0  0.31560  0.13400  0.51700  1.0000
  C   C2        1.0  0.68440  0.63400  0.48300  1.0000
  C   C3        1.0  0.58750  0.31460  0.80350  1.0000
  C   C4        1.0  0.41250  0.81460  0.19650  1.0000
  C   C5        1.0  0.40210  0.21060  0.56780  1.0000
  C   C6        1.0  0.59790  0.71060  0.43220  1.0000
  H   H1        1.0  0.40030  0.24670  0.48050  1.0000
  H   H2        1.0  0.59970  0.74670  0.51950  1.0000
  C   C7        1.0  0.49070  0.23330  0.74810  1.0000
  C   C8        1.0  0.50930  0.73330  0.25190  1.0000
  C   C9        1.0  0.30940  0.08330  0.64810  1.0000
  C   C10       1.0  0.69060  0.58330  0.35190  1.0000
  H   H3        1.0  0.24500  0.03350  0.61410  1.0000
  H   H4        1.0  0.75500  0.53350  0.38590  1.0000
  C   C11       1.0  0.48990  0.18000  0.87750  1.0000
  C   C12       1.0  0.51010  0.68000  0.12250  1.0000
  H   H5        1.0  0.55260  0.19470  0.99840  1.0000
  H   H6        1.0  0.44740  0.69470  0.00160  1.0000
  N   N1        1.0  0.03820  0.40290  0.96830  1.0000
  N   N2        1.0  0.96180  0.90290  0.03170  1.0000
  N   N3        1.0  0.34880  0.38520  0.03000  1.0000
  N   N4        1.0  0.65120  0.88520  0.97000  1.0000
  H   H7        1.0  0.46220  0.39290  0.03570  1.0000
  H   H8        1.0  0.53780  0.89290  0.96430  1.0000
  C   C13       1.0  0.10920  0.33440  0.07270  1.0000
  C   C14       1.0  0.89080  0.83440  0.92730  1.0000
  H   H9        1.0  0.03780  0.30140  0.11280  1.0000
  H   H10       1.0  0.96220  0.80140  0.88720  1.0000
  C   C15       1.0  0.18930  0.43250  0.94320  1.0000
  C   C16       1.0  0.81070  0.93250  0.05680  1.0000
  H   H11       1.0  0.18410  0.47870  0.87600  1.0000
  H   H12       1.0  0.81590  0.97870  0.12400  1.0000
  C   C17       1.0  0.29240  0.32160  0.10830  1.0000
  C   C18       1.0  0.70760  0.82160  0.89170  1.0000
  H   H13       1.0  0.36980  0.27830  0.17360  1.0000
  H   H14       1.0  0.63020  0.77830  0.82640  1.0000
  C   C19       1.0  0.39670  0.10480  0.82890  1.0000
  C   C20       1.0  0.60330  0.60480  0.17110  1.0000
  C   C21       1.0  0.38550  0.04990  0.96890  1.0000
  C   C22       1.0  0.61450  0.54990  0.03110  1.0000
  O   O5        1.0  0.51900  0.05020  0.12680  1.0000
  O   O6        1.0  0.48100  0.55020  0.87320  1.0000
  O   O7        1.0  0.23670  0.00415  0.91790  1.0000
  O   O8        1.0  0.76330  0.50415  0.08210  1.0000
  C   C23       1.0  0.23470  0.10500  0.32450  1.0000
  C   C24       1.0  0.76530  0.60500  0.67550  1.0000
  O   O9        1.0  0.21020  0.02791  0.30260  1.0000
  O   O10       1.0  0.78980  0.52791  0.69740  1.0000
  O   O11       1.0  0.20330  0.15550  0.20420  1.0000
  O   O12       1.0  0.79670  0.65550  0.79580  1.0000
