data_image0
_chemical_formula_structural       U8S12O64C12H8C4H8C8H8C4H8C12H8C8H8
_chemical_formula_sum              "U8 S12 O64 C48 H48"
_cell_length_a       17.187
_cell_length_b       8.1645
_cell_length_c       26.895
_cell_angle_alpha    90
_cell_angle_beta     92.37
_cell_angle_gamma    90

_space_group_name_H-M_alt    "P 1"
_space_group_IT_number       1

loop_
  _space_group_symop_operation_xyz
  'x, y, z'

loop_
  _atom_site_type_symbol
  _atom_site_label
  _atom_site_symmetry_multiplicity
  _atom_site_fract_x
  _atom_site_fract_y
  _atom_site_fract_z
  _atom_site_occupancy
  U   U1        1.0  0.94301  0.08016  0.21824  1.0000
  U   U2        1.0  0.55699  0.58016  0.28176  1.0000
  U   U3        1.0  0.05699  0.91984  0.78176  1.0000
  U   U4        1.0  0.44301  0.41984  0.71824  1.0000
  U   U5        1.0  0.37517  0.85177  0.09493  1.0000
  U   U6        1.0  0.12483  0.35177  0.40507  1.0000
  U   U7        1.0  0.62483  0.14823  0.90507  1.0000
  U   U8        1.0  0.87517  0.64823  0.59493  1.0000
  S   S1        1.0  0.56531  0.36670  0.06941  1.0000
  S   S2        1.0  0.93469  0.86670  0.43059  1.0000
  S   S3        1.0  0.43469  0.63330  0.93059  1.0000
  S   S4        1.0  0.06531  0.13330  0.56941  1.0000
  S   S5        1.0  0.82982  0.58350  0.31678  1.0000
  S   S6        1.0  0.67018  0.08350  0.18322  1.0000
  S   S7        1.0  0.17018  0.41650  0.68322  1.0000
  S   S8        1.0  0.32982  0.91650  0.81678  1.0000
  S   S9        1.0  0.06924  0.90600  0.04266  1.0000
  S   S10       1.0  0.43076  0.40600  0.45734  1.0000
  S   S11       1.0  0.93076  0.09400  0.95734  1.0000
  S   S12       1.0  0.56924  0.59400  0.54266  1.0000
  O   O1        1.0  0.97880  0.36580  0.24070  1.0000
  O   O2        1.0  0.52120  0.86580  0.25930  1.0000
  O   O3        1.0  0.02120  0.63420  0.75930  1.0000
  O   O4        1.0  0.47880  0.13420  0.74070  1.0000
  O   O5        1.0  0.24060  0.94480  0.07690  1.0000
  O   O6        1.0  0.25940  0.44480  0.42310  1.0000
  O   O7        1.0  0.75940  0.05520  0.92310  1.0000
  O   O8        1.0  0.74060  0.55520  0.57690  1.0000
  O   O9        1.0  0.40150  0.56740  0.12380  1.0000
  O   O10       1.0  0.09850  0.06740  0.37620  1.0000
  O   O11       1.0  0.59850  0.43260  0.87620  1.0000
  O   O12       1.0  0.90150  0.93260  0.62380  1.0000
  O   O13       1.0  0.48630  0.02440  0.07225  1.0000
  O   O14       1.0  0.01370  0.52440  0.42775  1.0000
  O   O15       1.0  0.51370  0.97560  0.92775  1.0000
  O   O16       1.0  0.98630  0.47560  0.57225  1.0000
  O   O17       1.0  0.86270  0.15350  0.18163  1.0000
  O   O18       1.0  0.63730  0.65350  0.31837  1.0000
  O   O19       1.0  0.13730  0.84650  0.81837  1.0000
  O   O20       1.0  0.36270  0.34650  0.68163  1.0000
  O   O21       1.0  0.50290  0.71690  0.10768  1.0000
  O   O22       1.0  0.99710  0.21690  0.39232  1.0000
  O   O23       1.0  0.49710  0.28310  0.89232  1.0000
  O   O24       1.0  0.00290  0.78310  0.60768  1.0000
  O   O25       1.0  0.38040  0.92680  0.15607  1.0000
  O   O26       1.0  0.11960  0.42680  0.34393  1.0000
  O   O27       1.0  0.61960  0.07320  0.84393  1.0000
  O   O28       1.0  0.88040  0.57320  0.65607  1.0000
  O   O29       1.0  0.25440  0.70600  0.11236  1.0000
  O   O30       1.0  0.24560  0.20600  0.38764  1.0000
  O   O31       1.0  0.74560  0.29400  0.88764  1.0000
  O   O32       1.0  0.75440  0.79400  0.61236  1.0000
  O   O33       1.0  0.89880  0.24250  0.28843  1.0000
  O   O34       1.0  0.60120  0.74250  0.21157  1.0000
  O   O35       1.0  0.10120  0.75750  0.71157  1.0000
  O   O36       1.0  0.39880  0.25750  0.78843  1.0000
  O   O37       1.0  0.85040  0.93250  0.26910  1.0000
  O   O38       1.0  0.64960  0.43250  0.23090  1.0000
  O   O39       1.0  0.14960  0.06750  0.73090  1.0000
  O   O40       1.0  0.35040  0.56750  0.76910  1.0000
  O   O41       1.0  0.89870  0.79600  0.20750  1.0000
  O   O42       1.0  0.60130  0.29600  0.29250  1.0000
  O   O43       1.0  0.10130  0.20400  0.79250  1.0000
  O   O44       1.0  0.39870  0.70400  0.70750  1.0000
  O   O45       1.0  0.37110  0.77710  0.03355  1.0000
  O   O46       1.0  0.12890  0.27710  0.46645  1.0000
  O   O47       1.0  0.62890  0.22290  0.96645  1.0000
  O   O48       1.0  0.87110  0.72290  0.53355  1.0000
  O   O49       1.0  0.99240  0.94260  0.14320  1.0000
  O   O50       1.0  0.50760  0.44260  0.35680  1.0000
  O   O51       1.0  0.00760  0.05740  0.85680  1.0000
  O   O52       1.0  0.49240  0.55740  0.64320  1.0000
  O   O53       1.0  0.37070  0.13470  0.06430  1.0000
  O   O54       1.0  0.12930  0.63470  0.43570  1.0000
  O   O55       1.0  0.62930  0.86530  0.93570  1.0000
  O   O56       1.0  0.87070  0.36530  0.56430  1.0000
  O   O57       1.0  0.02310  0.00550  0.25514  1.0000
  O   O58       1.0  0.47690  0.50550  0.24486  1.0000
  O   O59       1.0  0.97690  0.99450  0.74486  1.0000
  O   O60       1.0  0.52310  0.49450  0.75514  1.0000
  O   O61       1.0  0.03140  0.19470  0.15850  1.0000
  O   O62       1.0  0.46860  0.69470  0.34150  1.0000
  O   O63       1.0  0.96860  0.80530  0.84150  1.0000
  O   O64       1.0  0.53140  0.30530  0.65850  1.0000
  C   C1        1.0  0.44290  0.14240  0.05990  1.0000
  C   C2        1.0  0.05710  0.64240  0.44010  1.0000
  C   C3        1.0  0.55710  0.85760  0.94010  1.0000
  C   C4        1.0  0.94290  0.35760  0.55990  1.0000
  C   C5        1.0  0.21240  0.81140  0.09020  1.0000
  C   C6        1.0  0.28760  0.31140  0.40980  1.0000
  C   C7        1.0  0.78760  0.18860  0.90980  1.0000
  C   C8        1.0  0.71240  0.68860  0.59020  1.0000
  C   C9        1.0  0.47700  0.29620  0.03690  1.0000
  C   C10       1.0  0.02300  0.79620  0.46310  1.0000
  C   C11       1.0  0.52300  0.70380  0.96310  1.0000
  C   C12       1.0  0.97700  0.20380  0.53690  1.0000
  H   H1        1.0  0.43810  0.38390  0.03710  1.0000
  H   H2        1.0  0.06190  0.88390  0.46290  1.0000
  H   H3        1.0  0.56190  0.61610  0.96290  1.0000
  H   H4        1.0  0.93810  0.11610  0.53710  1.0000
  H   H5        1.0  0.48830  0.27360  0.00220  1.0000
  H   H6        1.0  0.01170  0.77360  0.49780  1.0000
  H   H7        1.0  0.51170  0.72640  0.99780  1.0000
  H   H8        1.0  0.98830  0.22640  0.50220  1.0000
  C   C13       1.0  0.12760  0.76690  0.08050  1.0000
  C   C14       1.0  0.37240  0.26690  0.41950  1.0000
  C   C15       1.0  0.87240  0.23310  0.91950  1.0000
  C   C16       1.0  0.62760  0.73310  0.58050  1.0000
  H   H9        1.0  0.10330  0.75580  0.11260  1.0000
  H   H10       1.0  0.39670  0.25580  0.38740  1.0000
  H   H11       1.0  0.89670  0.24420  0.88740  1.0000
  H   H12       1.0  0.60330  0.74420  0.61260  1.0000
  H   H13       1.0  0.12550  0.65900  0.06440  1.0000
  H   H14       1.0  0.37450  0.15900  0.43560  1.0000
  H   H15       1.0  0.87450  0.34100  0.93560  1.0000
  H   H16       1.0  0.62550  0.84100  0.56440  1.0000
  C   C17       1.0  0.85310  0.80370  0.24340  1.0000
  C   C18       1.0  0.64690  0.30370  0.25660  1.0000
  C   C19       1.0  0.14690  0.19630  0.75660  1.0000
  C   C20       1.0  0.35310  0.69630  0.74340  1.0000
  C   C21       1.0  0.06700  0.08550  0.08150  1.0000
  C   C22       1.0  0.43300  0.58550  0.41850  1.0000
  C   C23       1.0  0.93300  0.91450  0.91850  1.0000
  C   C24       1.0  0.56700  0.41450  0.58150  1.0000
  H   H17       1.0  0.12090  0.12050  0.08860  1.0000
  H   H18       1.0  0.37910  0.62050  0.41140  1.0000
  H   H19       1.0  0.87910  0.87950  0.91140  1.0000
  H   H20       1.0  0.62090  0.37950  0.58860  1.0000
  H   H21       1.0  0.04110  0.17320  0.06220  1.0000
  H   H22       1.0  0.45890  0.67320  0.43780  1.0000
  H   H23       1.0  0.95890  0.82680  0.93780  1.0000
  H   H24       1.0  0.54110  0.32680  0.56220  1.0000
  C   C25       1.0  0.52590  0.43190  0.12700  1.0000
  C   C26       1.0  0.97410  0.93190  0.37300  1.0000
  C   C27       1.0  0.47410  0.56810  0.87300  1.0000
  C   C28       1.0  0.02590  0.06810  0.62700  1.0000
  H   H25       1.0  0.49600  0.34190  0.14080  1.0000
  H   H26       1.0  0.00400  0.84190  0.35920  1.0000
  H   H27       1.0  0.50400  0.65810  0.85920  1.0000
  H   H28       1.0  0.99600  0.15810  0.64080  1.0000
  H   H29       1.0  0.56870  0.45820  0.15080  1.0000
  H   H30       1.0  0.93130  0.95820  0.34920  1.0000
  H   H31       1.0  0.43130  0.54180  0.84920  1.0000
  H   H32       1.0  0.06870  0.04180  0.65080  1.0000
  C   C29       1.0  0.02750  0.07030  0.13030  1.0000
  C   C30       1.0  0.47250  0.57030  0.36970  1.0000
  C   C31       1.0  0.97250  0.92970  0.86970  1.0000
  C   C32       1.0  0.52750  0.42970  0.63030  1.0000
  C   C33       1.0  0.93600  0.36870  0.27790  1.0000
  C   C34       1.0  0.56400  0.86870  0.22210  1.0000
  C   C35       1.0  0.06400  0.63130  0.72210  1.0000
  C   C36       1.0  0.43600  0.13130  0.77790  1.0000
  C   C37       1.0  0.80510  0.65760  0.25550  1.0000
  C   C38       1.0  0.69490  0.15760  0.24450  1.0000
  C   C39       1.0  0.19490  0.34240  0.74450  1.0000
  C   C40       1.0  0.30510  0.84240  0.75550  1.0000
  H   H33       1.0  0.81370  0.57070  0.23120  1.0000
  H   H34       1.0  0.68630  0.07070  0.26880  1.0000
  H   H35       1.0  0.18630  0.42930  0.76880  1.0000
  H   H36       1.0  0.31370  0.92930  0.73120  1.0000
  H   H37       1.0  0.74980  0.68720  0.25320  1.0000
  H   H38       1.0  0.75020  0.18720  0.24680  1.0000
  H   H39       1.0  0.25020  0.31280  0.74680  1.0000
  H   H40       1.0  0.24980  0.81280  0.75320  1.0000
  C   C41       1.0  0.47400  0.57960  0.12010  1.0000
  C   C42       1.0  0.02600  0.07960  0.37990  1.0000
  C   C43       1.0  0.52600  0.42040  0.87990  1.0000
  C   C44       1.0  0.97400  0.92040  0.62010  1.0000
  C   C45       1.0  0.92880  0.52100  0.30820  1.0000
  C   C46       1.0  0.57120  0.02100  0.19180  1.0000
  C   C47       1.0  0.07120  0.47900  0.69180  1.0000
  C   C48       1.0  0.42880  0.97900  0.80820  1.0000
  H   H41       1.0  0.95620  0.61010  0.29200  1.0000
  H   H42       1.0  0.54380  0.11010  0.20800  1.0000
  H   H43       1.0  0.04380  0.38990  0.70800  1.0000
  H   H44       1.0  0.45620  0.88990  0.79200  1.0000
  H   H45       1.0  0.95460  0.50310  0.34090  1.0000
  H   H46       1.0  0.54540  0.00310  0.15910  1.0000
  H   H47       1.0  0.04540  0.49690  0.65910  1.0000
  H   H48       1.0  0.45460  0.99690  0.84090  1.0000
