data_image0
_chemical_formula_structural       C4H4C4H4C4H4C4H4C4H4C12H4C12H4C12H4C12H4C12H4C12H4C4H4C4H4C4H4C4H4C4H4N8O48Zn8
_chemical_formula_sum              "C112 H64 N8 O48 Zn8"
_cell_length_a       17.751
_cell_length_b       17.5007
_cell_length_c       18.028
_cell_angle_alpha    90
_cell_angle_beta     108.108
_cell_angle_gamma    90

_space_group_name_H-M_alt    "P 1"
_space_group_IT_number       1

loop_
  _space_group_symop_operation_xyz
  'x, y, z'

loop_
  _atom_site_type_symbol
  _atom_site_label
  _atom_site_symmetry_multiplicity
  _atom_site_fract_x
  _atom_site_fract_y
  _atom_site_fract_z
  _atom_site_occupancy
  C   C1        1.0  0.78010  0.57820  0.68930  1.0000
  C   C2        1.0  0.71990  0.07820  0.81070  1.0000
  C   C3        1.0  0.21990  0.42180  0.31070  1.0000
  C   C4        1.0  0.28010  0.92180  0.18930  1.0000
  H   H1        1.0  0.81770  0.59690  0.73550  1.0000
  H   H2        1.0  0.68230  0.09690  0.76450  1.0000
  H   H3        1.0  0.18230  0.40310  0.26450  1.0000
  H   H4        1.0  0.31770  0.90310  0.23550  1.0000
  C   C5        1.0  0.70440  0.56340  0.68990  1.0000
  C   C6        1.0  0.79560  0.06340  0.81010  1.0000
  C   C7        1.0  0.29560  0.43660  0.31010  1.0000
  C   C8        1.0  0.20440  0.93660  0.18990  1.0000
  H   H5        1.0  0.69030  0.57160  0.73590  1.0000
  H   H6        1.0  0.80970  0.07160  0.76410  1.0000
  H   H7        1.0  0.30970  0.42840  0.26410  1.0000
  H   H8        1.0  0.19030  0.92840  0.23590  1.0000
  C   C9        1.0  0.64930  0.53670  0.62330  1.0000
  C   C10       1.0  0.85070  0.03670  0.87670  1.0000
  C   C11       1.0  0.35070  0.46330  0.37670  1.0000
  C   C12       1.0  0.14930  0.96330  0.12330  1.0000
  H   H9        1.0  0.59650  0.52680  0.62260  1.0000
  H   H10       1.0  0.90350  0.02680  0.87740  1.0000
  H   H11       1.0  0.40350  0.47320  0.37740  1.0000
  H   H12       1.0  0.09650  0.97320  0.12260  1.0000
  C   C13       1.0  0.67140  0.52450  0.55870  1.0000
  C   C14       1.0  0.82860  0.02450  0.94130  1.0000
  C   C15       1.0  0.32860  0.47550  0.44130  1.0000
  C   C16       1.0  0.17140  0.97550  0.05870  1.0000
  H   H13       1.0  0.63430  0.50530  0.51240  1.0000
  H   H14       1.0  0.86570  0.00530  0.98760  1.0000
  H   H15       1.0  0.36570  0.49470  0.48760  1.0000
  H   H16       1.0  0.13430  0.99470  0.01240  1.0000
  C   C17       1.0  0.74820  0.54040  0.56120  1.0000
  C   C18       1.0  0.75180  0.04040  0.93880  1.0000
  C   C19       1.0  0.25180  0.45960  0.43880  1.0000
  C   C20       1.0  0.24820  0.95960  0.06120  1.0000
  H   H17       1.0  0.76310  0.53220  0.51550  1.0000
  H   H18       1.0  0.73690  0.03220  0.98450  1.0000
  H   H19       1.0  0.23690  0.46780  0.48450  1.0000
  H   H20       1.0  0.26310  0.96780  0.01550  1.0000
  C   C21       1.0  0.97900  0.73530  0.70830  1.0000
  C   C22       1.0  0.52100  0.23530  0.79170  1.0000
  C   C23       1.0  0.02100  0.26470  0.29170  1.0000
  C   C24       1.0  0.47900  0.76470  0.20830  1.0000
  C   C25       1.0  0.98790  0.79180  0.77370  1.0000
  C   C26       1.0  0.51210  0.29180  0.72630  1.0000
  C   C27       1.0  0.01210  0.20820  0.22630  1.0000
  C   C28       1.0  0.48790  0.70820  0.27370  1.0000
  C   C29       1.0  0.94520  0.78130  0.82610  1.0000
  C   C30       1.0  0.55480  0.28130  0.67390  1.0000
  C   C31       1.0  0.05480  0.21870  0.17390  1.0000
  C   C32       1.0  0.44520  0.71870  0.32610  1.0000
  H   H21       1.0  0.91070  0.73870  0.82020  1.0000
  H   H22       1.0  0.58930  0.23870  0.67980  1.0000
  H   H23       1.0  0.08930  0.26130  0.17980  1.0000
  H   H24       1.0  0.41070  0.76130  0.32020  1.0000
  C   C33       1.0  0.95290  0.83290  0.88700  1.0000
  C   C34       1.0  0.54710  0.33290  0.61300  1.0000
  C   C35       1.0  0.04710  0.16710  0.11300  1.0000
  C   C36       1.0  0.45290  0.66710  0.38700  1.0000
  C   C37       1.0  0.90650  0.82190  0.94270  1.0000
  C   C38       1.0  0.59350  0.32190  0.55730  1.0000
  C   C39       1.0  0.09350  0.17810  0.05730  1.0000
  C   C40       1.0  0.40650  0.67810  0.44270  1.0000
  C   C41       1.0  0.00180  0.89650  0.89280  1.0000
  C   C42       1.0  0.49820  0.39650  0.60720  1.0000
  C   C43       1.0  0.99820  0.10350  0.10720  1.0000
  C   C44       1.0  0.50180  0.60350  0.39280  1.0000
  H   H25       1.0  0.00740  0.93200  0.93410  1.0000
  H   H26       1.0  0.49260  0.43200  0.56590  1.0000
  H   H27       1.0  0.99260  0.06800  0.06590  1.0000
  H   H28       1.0  0.50740  0.56800  0.43410  1.0000
  C   C45       1.0  0.04250  0.90870  0.83900  1.0000
  C   C46       1.0  0.45750  0.40870  0.66100  1.0000
  C   C47       1.0  0.95750  0.09130  0.16100  1.0000
  C   C48       1.0  0.54250  0.59130  0.33900  1.0000
  C   C49       1.0  0.09160  0.97870  0.84380  1.0000
  C   C50       1.0  0.40840  0.47870  0.65620  1.0000
  C   C51       1.0  0.90840  0.02130  0.15620  1.0000
  C   C52       1.0  0.59160  0.52130  0.34380  1.0000
  C   C53       1.0  0.03640  0.85520  0.78090  1.0000
  C   C54       1.0  0.46360  0.35520  0.71910  1.0000
  C   C55       1.0  0.96360  0.14480  0.21910  1.0000
  C   C56       1.0  0.53640  0.64480  0.28090  1.0000
  H   H29       1.0  0.06590  0.86210  0.74550  1.0000
  H   H30       1.0  0.43410  0.36210  0.75450  1.0000
  H   H31       1.0  0.93410  0.13790  0.25450  1.0000
  H   H32       1.0  0.56590  0.63790  0.24550  1.0000
  C   C57       1.0  0.87440  0.67840  0.46670  1.0000
  C   C58       1.0  0.62560  0.17840  0.03330  1.0000
  C   C59       1.0  0.12560  0.32160  0.53330  1.0000
  C   C60       1.0  0.37440  0.82160  0.96670  1.0000
  C   C61       1.0  0.89260  0.66710  0.39070  1.0000
  C   C62       1.0  0.60740  0.16710  0.10930  1.0000
  C   C63       1.0  0.10740  0.33290  0.60930  1.0000
  C   C64       1.0  0.39260  0.83290  0.89070  1.0000
  C   C65       1.0  0.92600  0.59860  0.37690  1.0000
  C   C66       1.0  0.57400  0.09860  0.12310  1.0000
  C   C67       1.0  0.07400  0.40140  0.62310  1.0000
  C   C68       1.0  0.42600  0.90140  0.87690  1.0000
  H   H33       1.0  0.93370  0.55820  0.41370  1.0000
  H   H34       1.0  0.56630  0.05820  0.08630  1.0000
  H   H35       1.0  0.06630  0.44180  0.58630  1.0000
  H   H36       1.0  0.43370  0.94180  0.91370  1.0000
  C   C69       1.0  0.94810  0.58860  0.31010  1.0000
  C   C70       1.0  0.55190  0.08860  0.18990  1.0000
  C   C71       1.0  0.05190  0.41140  0.68990  1.0000
  C   C72       1.0  0.44810  0.91140  0.81010  1.0000
  C   C73       1.0  0.98730  0.51550  0.29840  1.0000
  C   C74       1.0  0.51270  0.01550  0.20160  1.0000
  C   C75       1.0  0.01270  0.48450  0.70160  1.0000
  C   C76       1.0  0.48730  0.98450  0.79840  1.0000
  C   C77       1.0  0.93650  0.64840  0.25640  1.0000
  C   C78       1.0  0.56350  0.14840  0.24360  1.0000
  C   C79       1.0  0.06350  0.35160  0.74360  1.0000
  C   C80       1.0  0.43650  0.85160  0.75640  1.0000
  H   H37       1.0  0.95120  0.64220  0.21040  1.0000
  H   H38       1.0  0.54880  0.14220  0.28960  1.0000
  H   H39       1.0  0.04880  0.35780  0.78960  1.0000
  H   H40       1.0  0.45120  0.85780  0.71040  1.0000
  C   C81       1.0  0.90340  0.71680  0.27000  1.0000
  C   C82       1.0  0.59660  0.21680  0.23000  1.0000
  C   C83       1.0  0.09660  0.28320  0.73000  1.0000
  C   C84       1.0  0.40340  0.78320  0.77000  1.0000
  C   C85       1.0  0.89020  0.78250  0.21340  1.0000
  C   C86       1.0  0.60980  0.28250  0.28660  1.0000
  C   C87       1.0  0.10980  0.21750  0.78660  1.0000
  C   C88       1.0  0.39020  0.71750  0.71340  1.0000
  C   C89       1.0  0.88210  0.72640  0.33710  1.0000
  C   C90       1.0  0.61790  0.22640  0.16290  1.0000
  C   C91       1.0  0.11790  0.27360  0.66290  1.0000
  C   C92       1.0  0.38210  0.77360  0.83710  1.0000
  H   H41       1.0  0.86020  0.77360  0.34650  1.0000
  H   H42       1.0  0.63980  0.27360  0.15350  1.0000
  H   H43       1.0  0.13980  0.22640  0.65350  1.0000
  H   H44       1.0  0.36020  0.72640  0.84650  1.0000
  C   C93       1.0  0.72390  0.90330  0.10140  1.0000
  C   C94       1.0  0.77610  0.40330  0.39860  1.0000
  C   C95       1.0  0.27610  0.09670  0.89860  1.0000
  C   C96       1.0  0.22390  0.59670  0.60140  1.0000
  H   H45       1.0  0.75630  0.92830  0.14690  1.0000
  H   H46       1.0  0.74370  0.42830  0.35310  1.0000
  H   H47       1.0  0.24370  0.07170  0.85310  1.0000
  H   H48       1.0  0.25630  0.57170  0.64690  1.0000
  C   C97       1.0  0.64230  0.90080  0.08770  1.0000
  C   C98       1.0  0.85770  0.40080  0.41230  1.0000
  C   C99       1.0  0.35770  0.09920  0.91230  1.0000
  C   C100      1.0  0.14230  0.59920  0.58770  1.0000
  H   H49       1.0  0.61940  0.92350  0.12360  1.0000
  H   H50       1.0  0.88060  0.42350  0.37640  1.0000
  H   H51       1.0  0.38060  0.07650  0.87640  1.0000
  H   H52       1.0  0.11940  0.57650  0.62360  1.0000
  C   C101      1.0  0.59480  0.86470  0.02110  1.0000
  C   C102      1.0  0.90520  0.36470  0.47890  1.0000
  C   C103      1.0  0.40520  0.13530  0.97890  1.0000
  C   C104      1.0  0.09480  0.63530  0.52110  1.0000
  H   H53       1.0  0.53920  0.86140  0.01110  1.0000
  H   H54       1.0  0.96080  0.36140  0.48890  1.0000
  H   H55       1.0  0.46080  0.13860  0.98890  1.0000
  H   H56       1.0  0.03920  0.63860  0.51110  1.0000
  C   C105      1.0  0.62980  0.83380  0.96930  1.0000
  C   C106      1.0  0.87020  0.33380  0.53070  1.0000
  C   C107      1.0  0.37020  0.16620  0.03070  1.0000
  C   C108      1.0  0.12980  0.66620  0.46930  1.0000
  H   H57       1.0  0.59850  0.81020  0.92240  1.0000
  H   H58       1.0  0.90150  0.31020  0.57760  1.0000
  H   H59       1.0  0.40150  0.18980  0.07760  1.0000
  H   H60       1.0  0.09850  0.68980  0.42240  1.0000
  C   C109      1.0  0.71090  0.83790  0.98700  1.0000
  C   C110      1.0  0.78910  0.33790  0.51300  1.0000
  C   C111      1.0  0.28910  0.16210  0.01300  1.0000
  C   C112      1.0  0.21090  0.66210  0.48700  1.0000
  H   H61       1.0  0.73480  0.81620  0.95150  1.0000
  H   H62       1.0  0.76520  0.31620  0.54850  1.0000
  H   H63       1.0  0.26520  0.18380  0.04850  1.0000
  H   H64       1.0  0.23480  0.68380  0.45150  1.0000
  N   N1        1.0  0.75830  0.87160  0.05270  1.0000
  N   N2        1.0  0.74170  0.37160  0.44730  1.0000
  N   N3        1.0  0.24170  0.12840  0.94730  1.0000
  N   N4        1.0  0.25830  0.62840  0.55270  1.0000
  N   N5        1.0  0.80310  0.56710  0.62570  1.0000
  N   N6        1.0  0.69690  0.06710  0.87430  1.0000
  N   N7        1.0  0.19690  0.43290  0.37430  1.0000
  N   N8        1.0  0.30310  0.93290  0.12570  1.0000
  O   O1        1.0  0.86260  0.84310  0.22830  1.0000
  O   O2        1.0  0.63740  0.34310  0.27170  1.0000
  O   O3        1.0  0.13740  0.15690  0.77170  1.0000
  O   O4        1.0  0.36260  0.65690  0.72830  1.0000
  O   O5        1.0  0.91020  0.77190  0.15134  1.0000
  O   O6        1.0  0.58980  0.27190  0.34866  1.0000
  O   O7        1.0  0.08980  0.22810  0.84866  1.0000
  O   O8        1.0  0.41020  0.72810  0.65134  1.0000
  O   O9        1.0  0.84320  0.73850  0.47750  1.0000
  O   O10       1.0  0.65680  0.23850  0.02250  1.0000
  O   O11       1.0  0.15680  0.26150  0.52250  1.0000
  O   O12       1.0  0.34320  0.76150  0.97750  1.0000
  O   O13       1.0  0.89330  0.62150  0.51275  1.0000
  O   O14       1.0  0.60670  0.12150  0.98725  1.0000
  O   O15       1.0  0.10670  0.37850  0.48725  1.0000
  O   O16       1.0  0.39330  0.87850  0.01275  1.0000
  O   O17       1.0  0.00840  0.47200  0.35860  1.0000
  O   O18       1.0  0.49160  0.97200  0.14140  1.0000
  O   O19       1.0  0.99160  0.52800  0.64140  1.0000
  O   O20       1.0  0.50840  0.02800  0.85860  1.0000
  O   O21       1.0  0.99760  0.50110  0.23490  1.0000
  O   O22       1.0  0.50240  0.00110  0.26510  1.0000
  O   O23       1.0  0.00240  0.49890  0.76510  1.0000
  O   O24       1.0  0.49760  0.99890  0.73490  1.0000
  O   O25       1.0  0.07030  0.03540  0.87738  1.0000
  O   O26       1.0  0.42970  0.53540  0.62262  1.0000
  O   O27       1.0  0.92970  0.96460  0.12262  1.0000
  O   O28       1.0  0.57030  0.46460  0.37738  1.0000
  O   O29       1.0  0.14680  0.97750  0.81540  1.0000
  O   O30       1.0  0.35320  0.47750  0.68460  1.0000
  O   O31       1.0  0.85320  0.02250  0.18460  1.0000
  O   O32       1.0  0.64680  0.52250  0.31540  1.0000
  O   O33       1.0  0.02650  0.73440  0.67106  1.0000
  O   O34       1.0  0.47350  0.23440  0.82894  1.0000
  O   O35       1.0  0.97350  0.26560  0.32894  1.0000
  O   O36       1.0  0.52650  0.76560  0.17106  1.0000
  O   O37       1.0  0.91900  0.68939  0.69625  1.0000
  O   O38       1.0  0.58100  0.18939  0.80375  1.0000
  O   O39       1.0  0.08100  0.31061  0.30375  1.0000
  O   O40       1.0  0.41900  0.81061  0.19625  1.0000
  O   O41       1.0  0.93240  0.85719  0.00735  1.0000
  O   O42       1.0  0.56760  0.35719  0.49265  1.0000
  O   O43       1.0  0.06760  0.14281  0.99265  1.0000
  O   O44       1.0  0.43240  0.64281  0.50735  1.0000
  O   O45       1.0  0.84630  0.78180  0.92190  1.0000
  O   O46       1.0  0.65370  0.28180  0.57810  1.0000
  O   O47       1.0  0.15370  0.21820  0.07810  1.0000
  O   O48       1.0  0.34630  0.71820  0.42190  1.0000
  Zn  Zn1       1.0  0.87946  0.86551  0.08801  1.0000
  Zn  Zn2       1.0  0.62054  0.36551  0.41199  1.0000
  Zn  Zn3       1.0  0.12054  0.13449  0.91199  1.0000
  Zn  Zn4       1.0  0.37946  0.63449  0.58801  1.0000
  Zn  Zn5       1.0  0.91235  0.60696  0.62361  1.0000
  Zn  Zn6       1.0  0.58765  0.10696  0.87639  1.0000
  Zn  Zn7       1.0  0.08765  0.39304  0.37639  1.0000
  Zn  Zn8       1.0  0.41235  0.89304  0.12361  1.0000
