data_image0
_chemical_formula_structural       U4O44N16C20H4C8H4C4H4C20H4C8H4C4H4C4H4C4H4C4H4C8H4C4H4C8H4C4H4C4H4C4H4C4H4
_chemical_formula_sum              "U4 O44 N16 C112 H64"
_cell_length_a       11.408
_cell_length_b       32.504
_cell_length_c       12.62
_cell_angle_alpha    90
_cell_angle_beta     93.819
_cell_angle_gamma    90

_space_group_name_H-M_alt    "P 1"
_space_group_IT_number       1

loop_
  _space_group_symop_operation_xyz
  'x, y, z'

loop_
  _atom_site_type_symbol
  _atom_site_label
  _atom_site_symmetry_multiplicity
  _atom_site_fract_x
  _atom_site_fract_y
  _atom_site_fract_z
  _atom_site_occupancy
  U   U1        1.0  0.83792  0.12949  0.58008  1.0000
  U   U2        1.0  0.66208  0.62949  0.91992  1.0000
  U   U3        1.0  0.16208  0.87051  0.41992  1.0000
  U   U4        1.0  0.33792  0.37051  0.08008  1.0000
  O   O1        1.0  0.82910  0.07533  0.56160  1.0000
  O   O2        1.0  0.67090  0.57533  0.93840  1.0000
  O   O3        1.0  0.17090  0.92467  0.43840  1.0000
  O   O4        1.0  0.32910  0.42467  0.06160  1.0000
  O   O5        1.0  0.85530  0.18296  0.59940  1.0000
  O   O6        1.0  0.64470  0.68296  0.90060  1.0000
  O   O7        1.0  0.14470  0.81704  0.40060  1.0000
  O   O8        1.0  0.35530  0.31704  0.09940  1.0000
  O   O9        1.0  0.86020  0.13728  0.39520  1.0000
  O   O10       1.0  0.63980  0.63728  0.10480  1.0000
  O   O11       1.0  0.13980  0.86272  0.60480  1.0000
  O   O12       1.0  0.36020  0.36272  0.89520  1.0000
  O   O13       1.0  0.77020  0.09944  0.26710  1.0000
  O   O14       1.0  0.72980  0.59944  0.23290  1.0000
  O   O15       1.0  0.22980  0.90056  0.73290  1.0000
  O   O16       1.0  0.27020  0.40056  0.76710  1.0000
  O   O17       1.0  0.65340  0.13749  0.49290  1.0000
  O   O18       1.0  0.84660  0.63749  0.00710  1.0000
  O   O19       1.0  0.34660  0.86251  0.50710  1.0000
  O   O20       1.0  0.15340  0.36251  0.99290  1.0000
  O   O21       1.0  0.51550  0.18450  0.50470  1.0000
  O   O22       1.0  0.98450  0.68450  0.99530  1.0000
  O   O23       1.0  0.48450  0.81550  0.49530  1.0000
  O   O24       1.0  0.01550  0.31550  0.00470  1.0000
  O   O25       1.0  0.94120  0.11687  0.74250  1.0000
  O   O26       1.0  0.55880  0.61687  0.75750  1.0000
  O   O27       1.0  0.05880  0.88313  0.25750  1.0000
  O   O28       1.0  0.44120  0.38313  0.24250  1.0000
  O   O29       1.0  0.08680  0.14020  0.85040  1.0000
  O   O30       1.0  0.41320  0.64020  0.64960  1.0000
  O   O31       1.0  0.91320  0.85980  0.14960  1.0000
  O   O32       1.0  0.58680  0.35980  0.35040  1.0000
  O   O33       1.0  0.69850  0.12547  0.71210  1.0000
  O   O34       1.0  0.80150  0.62547  0.78790  1.0000
  O   O35       1.0  0.30150  0.87453  0.28790  1.0000
  O   O36       1.0  0.19850  0.37453  0.21210  1.0000
  O   O37       1.0  0.68880  0.09290  0.86460  1.0000
  O   O38       1.0  0.81120  0.59290  0.63540  1.0000
  O   O39       1.0  0.31120  0.90710  0.13540  1.0000
  O   O40       1.0  0.18880  0.40710  0.36460  1.0000
  O   O41       1.0  0.68200  0.23716  0.05470  1.0000
  O   O42       1.0  0.81800  0.73716  0.44530  1.0000
  O   O43       1.0  0.31800  0.76284  0.94530  1.0000
  O   O44       1.0  0.18200  0.26284  0.55470  1.0000
  N   N1        1.0  0.05060  0.12841  0.53210  1.0000
  N   N2        1.0  0.44940  0.62841  0.96790  1.0000
  N   N3        1.0  0.94940  0.87159  0.46790  1.0000
  N   N4        1.0  0.55060  0.37159  0.03210  1.0000
  N   N5        1.0  0.20030  0.11316  0.43690  1.0000
  N   N6        1.0  0.29970  0.61316  0.06310  1.0000
  N   N7        1.0  0.79970  0.88684  0.56310  1.0000
  N   N8        1.0  0.70030  0.38684  0.93690  1.0000
  N   N9        1.0  0.49610  0.02158  0.18750  1.0000
  N   N10       1.0  0.00390  0.52158  0.31250  1.0000
  N   N11       1.0  0.50390  0.97842  0.81250  1.0000
  N   N12       1.0  0.99610  0.47842  0.68750  1.0000
  N   N13       1.0  0.57270  0.97020  0.10180  1.0000
  N   N14       1.0  0.92730  0.47020  0.39820  1.0000
  N   N15       1.0  0.42730  0.02980  0.89820  1.0000
  N   N16       1.0  0.07270  0.52980  0.60180  1.0000
  C   C1        1.0  0.78210  0.13120  0.32070  1.0000
  C   C2        1.0  0.71790  0.63120  0.17930  1.0000
  C   C3        1.0  0.21790  0.86880  0.67930  1.0000
  C   C4        1.0  0.28210  0.36880  0.82070  1.0000
  C   C5        1.0  0.59470  0.16920  0.45890  1.0000
  C   C6        1.0  0.90530  0.66920  0.04110  1.0000
  C   C7        1.0  0.40530  0.83080  0.54110  1.0000
  C   C8        1.0  0.09470  0.33080  0.95890  1.0000
  C   C9        1.0  0.62600  0.18650  0.35380  1.0000
  C   C10       1.0  0.87400  0.68650  0.14620  1.0000
  C   C11       1.0  0.37400  0.81350  0.64620  1.0000
  C   C12       1.0  0.12600  0.31350  0.85380  1.0000
  C   C13       1.0  0.70610  0.16790  0.28820  1.0000
  C   C14       1.0  0.79390  0.66790  0.21180  1.0000
  C   C15       1.0  0.29390  0.83210  0.71180  1.0000
  C   C16       1.0  0.20610  0.33210  0.78820  1.0000
  C   C17       1.0  0.72420  0.18430  0.18830  1.0000
  C   C18       1.0  0.77580  0.68430  0.31170  1.0000
  C   C19       1.0  0.27580  0.81570  0.81170  1.0000
  C   C20       1.0  0.22420  0.31570  0.68830  1.0000
  H   H1        1.0  0.77540  0.17120  0.14490  1.0000
  H   H2        1.0  0.72460  0.67120  0.35510  1.0000
  H   H3        1.0  0.22460  0.82880  0.85510  1.0000
  H   H4        1.0  0.27540  0.32880  0.64490  1.0000
  C   C21       1.0  0.66680  0.21970  0.15320  1.0000
  C   C22       1.0  0.83320  0.71970  0.34680  1.0000
  C   C23       1.0  0.33320  0.78030  0.84680  1.0000
  C   C24       1.0  0.16680  0.28030  0.65320  1.0000
  C   C25       1.0  0.58610  0.23860  0.21530  1.0000
  C   C26       1.0  0.91390  0.73860  0.28470  1.0000
  C   C27       1.0  0.41390  0.76140  0.78470  1.0000
  C   C28       1.0  0.08610  0.26140  0.71530  1.0000
  H   H5        1.0  0.54700  0.26230  0.19210  1.0000
  H   H6        1.0  0.95300  0.76230  0.30790  1.0000
  H   H7        1.0  0.45300  0.73770  0.80790  1.0000
  H   H8        1.0  0.04700  0.23770  0.69210  1.0000
  C   C29       1.0  0.56520  0.22090  0.31330  1.0000
  C   C30       1.0  0.93480  0.72090  0.18670  1.0000
  C   C31       1.0  0.43480  0.77910  0.68670  1.0000
  C   C32       1.0  0.06520  0.27910  0.81330  1.0000
  H   H9        1.0  0.50830  0.23270  0.35330  1.0000
  H   H10       1.0  0.99170  0.73270  0.14670  1.0000
  H   H11       1.0  0.49170  0.76730  0.64670  1.0000
  H   H12       1.0  0.00830  0.26730  0.85330  1.0000
  C   C33       1.0  0.98280  0.13940  0.82010  1.0000
  C   C34       1.0  0.51720  0.63940  0.67990  1.0000
  C   C35       1.0  0.01720  0.86060  0.17990  1.0000
  C   C36       1.0  0.48280  0.36060  0.32010  1.0000
  C   C37       1.0  0.71820  0.12210  0.81220  1.0000
  C   C38       1.0  0.78180  0.62210  0.68780  1.0000
  C   C39       1.0  0.28180  0.87790  0.18780  1.0000
  C   C40       1.0  0.21820  0.37790  0.31220  1.0000
  C   C41       1.0  0.89800  0.16560  0.87550  1.0000
  C   C42       1.0  0.60200  0.66560  0.62450  1.0000
  C   C43       1.0  0.10200  0.83440  0.12450  1.0000
  C   C44       1.0  0.39800  0.33440  0.37550  1.0000
  C   C45       1.0  0.77790  0.15780  0.87100  1.0000
  C   C46       1.0  0.72210  0.65780  0.62900  1.0000
  C   C47       1.0  0.22210  0.84220  0.12900  1.0000
  C   C48       1.0  0.27790  0.34220  0.37100  1.0000
  C   C49       1.0  0.70640  0.18330  0.93070  1.0000
  C   C50       1.0  0.79360  0.68330  0.56930  1.0000
  C   C51       1.0  0.29360  0.81670  0.06930  1.0000
  C   C52       1.0  0.20640  0.31670  0.43070  1.0000
  H   H13       1.0  0.62590  0.17850  0.92870  1.0000
  H   H14       1.0  0.87410  0.67850  0.57130  1.0000
  H   H15       1.0  0.37410  0.82150  0.07130  1.0000
  H   H16       1.0  0.12590  0.32150  0.42870  1.0000
  C   C53       1.0  0.75300  0.21450  0.99080  1.0000
  C   C54       1.0  0.74700  0.71450  0.50920  1.0000
  C   C55       1.0  0.24700  0.78550  0.00920  1.0000
  C   C56       1.0  0.25300  0.28550  0.49080  1.0000
  C   C57       1.0  0.87190  0.22260  0.99520  1.0000
  C   C58       1.0  0.62810  0.72260  0.50480  1.0000
  C   C59       1.0  0.12810  0.77740  0.00480  1.0000
  C   C60       1.0  0.37190  0.27740  0.49520  1.0000
  H   H17       1.0  0.90320  0.24450  0.03510  1.0000
  H   H18       1.0  0.59680  0.74450  0.46490  1.0000
  H   H19       1.0  0.09680  0.75550  0.96490  1.0000
  H   H20       1.0  0.40320  0.25550  0.53510  1.0000
  C   C61       1.0  0.94390  0.19740  0.93890  1.0000
  C   C62       1.0  0.55610  0.69740  0.56110  1.0000
  C   C63       1.0  0.05610  0.80260  0.06110  1.0000
  C   C64       1.0  0.44390  0.30260  0.43890  1.0000
  H   H21       1.0  0.02450  0.20190  0.94370  1.0000
  H   H22       1.0  0.47550  0.70190  0.55630  1.0000
  H   H23       1.0  0.97550  0.79810  0.05630  1.0000
  H   H24       1.0  0.52450  0.29810  0.44370  1.0000
  C   C65       1.0  0.09550  0.10100  0.47060  1.0000
  C   C66       1.0  0.40450  0.60100  0.02940  1.0000
  C   C67       1.0  0.90450  0.89900  0.52940  1.0000
  C   C68       1.0  0.59550  0.39900  0.97060  1.0000
  H   H25       1.0  0.05960  0.07610  0.45210  1.0000
  H   H26       1.0  0.44040  0.57610  0.04790  1.0000
  H   H27       1.0  0.94040  0.92390  0.54790  1.0000
  H   H28       1.0  0.55960  0.42390  0.95210  1.0000
  C   C69       1.0  0.13120  0.15990  0.53870  1.0000
  C   C70       1.0  0.36880  0.65990  0.96130  1.0000
  C   C71       1.0  0.86880  0.84010  0.46130  1.0000
  C   C72       1.0  0.63120  0.34010  0.03870  1.0000
  H   H29       1.0  0.12270  0.18400  0.57690  1.0000
  H   H30       1.0  0.37730  0.68400  0.92310  1.0000
  H   H31       1.0  0.87730  0.81600  0.42310  1.0000
  H   H32       1.0  0.62270  0.31600  0.07690  1.0000
  C   C73       1.0  0.22340  0.15120  0.48310  1.0000
  C   C74       1.0  0.27660  0.65120  0.01690  1.0000
  C   C75       1.0  0.77660  0.84880  0.51690  1.0000
  C   C76       1.0  0.72340  0.34880  0.98310  1.0000
  H   H33       1.0  0.28980  0.16730  0.47650  1.0000
  H   H34       1.0  0.21020  0.66730  0.02350  1.0000
  H   H35       1.0  0.71020  0.83270  0.52350  1.0000
  H   H36       1.0  0.78980  0.33270  0.97650  1.0000
  C   C77       1.0  0.27470  0.09020  0.37070  1.0000
  C   C78       1.0  0.22530  0.59020  0.12930  1.0000
  C   C79       1.0  0.72530  0.90980  0.62930  1.0000
  C   C80       1.0  0.77470  0.40980  0.87070  1.0000
  C   C81       1.0  0.22760  0.05970  0.30050  1.0000
  C   C82       1.0  0.27240  0.55970  0.19950  1.0000
  C   C83       1.0  0.77240  0.94030  0.69950  1.0000
  C   C84       1.0  0.72760  0.44030  0.80050  1.0000
  H   H37       1.0  0.14720  0.05460  0.29510  1.0000
  H   H38       1.0  0.35280  0.55460  0.20490  1.0000
  H   H39       1.0  0.85280  0.94540  0.70490  1.0000
  H   H40       1.0  0.64720  0.44540  0.79510  1.0000
  C   C85       1.0  0.30070  0.03770  0.24060  1.0000
  C   C86       1.0  0.19930  0.53770  0.25940  1.0000
  C   C87       1.0  0.69930  0.96230  0.75940  1.0000
  C   C88       1.0  0.80070  0.46230  0.74060  1.0000
  H   H41       1.0  0.26990  0.01750  0.19460  1.0000
  H   H42       1.0  0.23010  0.51750  0.30540  1.0000
  H   H43       1.0  0.73010  0.98250  0.80540  1.0000
  H   H44       1.0  0.76990  0.48250  0.69460  1.0000
  C   C89       1.0  0.42010  0.04520  0.24780  1.0000
  C   C90       1.0  0.07990  0.54520  0.25220  1.0000
  C   C91       1.0  0.57990  0.95480  0.75220  1.0000
  C   C92       1.0  0.92010  0.45480  0.74780  1.0000
  C   C93       1.0  0.46580  0.07520  0.31500  1.0000
  C   C94       1.0  0.03420  0.57520  0.18500  1.0000
  C   C95       1.0  0.53420  0.92480  0.68500  1.0000
  C   C96       1.0  0.96580  0.42480  0.81500  1.0000
  H   H45       1.0  0.54620  0.08020  0.31940  1.0000
  H   H46       1.0  0.95380  0.58020  0.18060  1.0000
  H   H47       1.0  0.45380  0.91980  0.68060  1.0000
  H   H48       1.0  0.04620  0.41980  0.81940  1.0000
  C   C97       1.0  0.39340  0.09820  0.37680  1.0000
  C   C98       1.0  0.10660  0.59820  0.12320  1.0000
  C   C99       1.0  0.60660  0.90180  0.62320  1.0000
  C   C100      1.0  0.89340  0.40180  0.87680  1.0000
  H   H49       1.0  0.42480  0.11870  0.42150  1.0000
  H   H50       1.0  0.07520  0.61870  0.07850  1.0000
  H   H51       1.0  0.57520  0.88130  0.57850  1.0000
  H   H52       1.0  0.92480  0.38130  0.92150  1.0000
  C   C101      1.0  0.47920  0.98310  0.15060  1.0000
  C   C102      1.0  0.02080  0.48310  0.34940  1.0000
  C   C103      1.0  0.52080  0.01690  0.84940  1.0000
  C   C104      1.0  0.97920  0.51690  0.65060  1.0000
  H   H53       1.0  0.41160  0.96760  0.15800  1.0000
  H   H54       1.0  0.08840  0.46760  0.34200  1.0000
  H   H55       1.0  0.58840  0.03240  0.84200  1.0000
  H   H56       1.0  0.91160  0.53240  0.65800  1.0000
  C   C105      1.0  0.65280  0.00170  0.10680  1.0000
  C   C106      1.0  0.84720  0.50170  0.39320  1.0000
  C   C107      1.0  0.34720  0.99830  0.89320  1.0000
  C   C108      1.0  0.15280  0.49830  0.60680  1.0000
  H   H57       1.0  0.72560  0.00150  0.07770  1.0000
  H   H58       1.0  0.77440  0.50150  0.42230  1.0000
  H   H59       1.0  0.27440  0.99850  0.92230  1.0000
  H   H60       1.0  0.22560  0.49850  0.57770  1.0000
  C   C109      1.0  0.60800  0.03300  0.16110  1.0000
  C   C110      1.0  0.89200  0.53300  0.33890  1.0000
  C   C111      1.0  0.39200  0.96700  0.83890  1.0000
  C   C112      1.0  0.10800  0.46700  0.66110  1.0000
  H   H61       1.0  0.64520  0.05790  0.17790  1.0000
  H   H62       1.0  0.85480  0.55790  0.32210  1.0000
  H   H63       1.0  0.35480  0.94210  0.82210  1.0000
  H   H64       1.0  0.14520  0.44210  0.67790  1.0000
