data_image0
_chemical_formula_structural       U2O22C6H2C2H2C4H2C8H2C2H2C6H2C4
_chemical_formula_sum              "U2 O22 C32 H12"
_cell_length_a       11.0082
_cell_length_b       11.9635
_cell_length_c       12.6607
_cell_angle_alpha    87.187
_cell_angle_beta     64.968
_cell_angle_gamma    71.5

_space_group_name_H-M_alt    "P 1"
_space_group_IT_number       1

loop_
  _space_group_symop_operation_xyz
  'x, y, z'

loop_
  _atom_site_type_symbol
  _atom_site_label
  _atom_site_symmetry_multiplicity
  _atom_site_fract_x
  _atom_site_fract_y
  _atom_site_fract_z
  _atom_site_occupancy
  U   U1        1.0  0.59701  0.85910  0.64404  1.0000
  U   U2        1.0  0.40299  0.14090  0.35596  1.0000
  O   O1        1.0  0.52380  0.77630  0.59110  1.0000
  O   O2        1.0  0.47620  0.22370  0.40890  1.0000
  O   O3        1.0  0.67250  0.94110  0.69430  1.0000
  O   O4        1.0  0.32750  0.05890  0.30570  1.0000
  O   O5        1.0  0.41320  0.04250  0.67600  1.0000
  O   O6        1.0  0.58680  0.95750  0.32400  1.0000
  O   O7        1.0  0.33160  0.06730  0.54050  1.0000
  O   O8        1.0  0.66840  0.93270  0.45950  1.0000
  O   O9        1.0  0.99980  0.17940  0.58270  1.0000
  O   O10       1.0  0.00020  0.82060  0.41730  1.0000
  O   O11       1.0  0.16540  0.26040  0.48420  1.0000
  O   O12       1.0  0.83460  0.73960  0.51580  1.0000
  O   O13       1.0  0.85760  0.46950  0.94760  1.0000
  O   O14       1.0  0.14240  0.53050  0.05240  1.0000
  O   O15       1.0  0.59020  0.13110  0.17070  1.0000
  O   O16       1.0  0.40980  0.86890  0.82930  1.0000
  O   O17       1.0  0.59900  0.15480  0.99530  1.0000
  O   O18       1.0  0.40100  0.84520  0.00470  1.0000
  O   O19       1.0  0.25430  0.48560  0.33040  1.0000
  O   O20       1.0  0.74570  0.51440  0.66960  1.0000
  O   O21       1.0  0.32820  0.29830  0.25790  1.0000
  O   O22       1.0  0.67180  0.70170  0.74210  1.0000
  C   C1        1.0  0.32540  0.09710  0.63680  1.0000
  C   C2        1.0  0.67460  0.90290  0.36320  1.0000
  C   C3        1.0  0.20550  0.20050  0.71450  1.0000
  C   C4        1.0  0.79450  0.79950  0.28550  1.0000
  C   C5        1.0  0.20150  0.23570  0.81860  1.0000
  C   C6        1.0  0.79850  0.76430  0.18140  1.0000
  H   H1        1.0  0.27720  0.19830  0.83680  1.0000
  H   H2        1.0  0.72280  0.80170  0.16320  1.0000
  C   C7        1.0  0.08670  0.32550  0.89570  1.0000
  C   C8        1.0  0.91330  0.67450  0.10430  1.0000
  H   H3        1.0  0.08620  0.35050  0.96440  1.0000
  H   H4        1.0  0.91380  0.64950  0.03560  1.0000
  C   C9        1.0  0.97270  0.37780  0.87000  1.0000
  C   C10       1.0  0.02730  0.62220  0.13000  1.0000
  C   C11       1.0  0.97390  0.34470  0.76730  1.0000
  C   C12       1.0  0.02610  0.65530  0.23270  1.0000
  H   H5        1.0  0.89630  0.38110  0.75100  1.0000
  H   H6        1.0  0.10370  0.61890  0.24900  1.0000
  C   C13       1.0  0.09070  0.25690  0.68780  1.0000
  C   C14       1.0  0.90930  0.74310  0.31220  1.0000
  C   C15       1.0  0.08460  0.22750  0.57670  1.0000
  C   C16       1.0  0.91540  0.77250  0.42330  1.0000
  C   C17       1.0  0.73340  0.44660  0.01900  1.0000
  C   C18       1.0  0.26660  0.55340  0.98100  1.0000
  C   C19       1.0  0.62490  0.54030  0.09350  1.0000
  C   C20       1.0  0.37510  0.45970  0.90650  1.0000
  H   H7        1.0  0.63450  0.61490  0.09220  1.0000
  H   H8        1.0  0.36550  0.38510  0.90780  1.0000
  C   C21       1.0  0.50070  0.52190  0.17050  1.0000
  C   C22       1.0  0.49930  0.47810  0.82950  1.0000
  H   H9        1.0  0.42650  0.58500  0.22170  1.0000
  H   H10       1.0  0.57350  0.41500  0.77830  1.0000
  C   C23       1.0  0.48450  0.41050  0.17320  1.0000
  C   C24       1.0  0.51550  0.58950  0.82680  1.0000
  C   C25       1.0  0.59420  0.31670  0.09470  1.0000
  C   C26       1.0  0.40580  0.68330  0.90530  1.0000
  C   C27       1.0  0.71790  0.33620  0.01710  1.0000
  C   C28       1.0  0.28210  0.66380  0.98290  1.0000
  H   H11       1.0  0.79110  0.27460  0.96320  1.0000
  H   H12       1.0  0.20890  0.72540  0.03680  1.0000
  C   C29       1.0  0.58980  0.19350  0.08660  1.0000
  C   C30       1.0  0.41020  0.80650  0.91340  1.0000
  C   C31       1.0  0.34590  0.40000  0.26010  1.0000
  C   C32       1.0  0.65410  0.60000  0.73990  1.0000
