data_image0
_chemical_formula_structural       U8O52F8C24H8C16H8C8H8C16
_chemical_formula_sum              "U8 O52 F8 C64 H24"
_cell_length_a       30.514
_cell_length_b       7.756
_cell_length_c       18.6624
_cell_angle_alpha    90
_cell_angle_beta     105.407
_cell_angle_gamma    90

_space_group_name_H-M_alt    "P 1"
_space_group_IT_number       1

loop_
  _space_group_symop_operation_xyz
  'x, y, z'

loop_
  _atom_site_type_symbol
  _atom_site_label
  _atom_site_symmetry_multiplicity
  _atom_site_fract_x
  _atom_site_fract_y
  _atom_site_fract_z
  _atom_site_occupancy
  U   U1        1.0  0.27486  0.64482  0.74439  1.0000
  U   U2        1.0  0.72514  0.64482  0.75561  1.0000
  U   U3        1.0  0.77486  0.14482  0.74439  1.0000
  U   U4        1.0  0.22514  0.14482  0.75561  1.0000
  U   U5        1.0  0.72514  0.35518  0.25561  1.0000
  U   U6        1.0  0.27486  0.35518  0.24439  1.0000
  U   U7        1.0  0.22514  0.85518  0.25561  1.0000
  U   U8        1.0  0.77486  0.85518  0.24439  1.0000
  O   O1        1.0  0.24710  0.73100  0.65710  1.0000
  O   O2        1.0  0.75290  0.73100  0.84290  1.0000
  O   O3        1.0  0.74710  0.23100  0.65710  1.0000
  O   O4        1.0  0.25290  0.23100  0.84290  1.0000
  O   O5        1.0  0.75290  0.26900  0.34290  1.0000
  O   O6        1.0  0.24710  0.26900  0.15710  1.0000
  O   O7        1.0  0.25290  0.76900  0.34290  1.0000
  O   O8        1.0  0.74710  0.76900  0.15710  1.0000
  O   O9        1.0  0.30167  0.56400  0.83360  1.0000
  O   O10       1.0  0.69833  0.56400  0.66640  1.0000
  O   O11       1.0  0.80167  0.06400  0.83360  1.0000
  O   O12       1.0  0.19833  0.06400  0.66640  1.0000
  O   O13       1.0  0.69833  0.43600  0.16640  1.0000
  O   O14       1.0  0.30167  0.43600  0.33360  1.0000
  O   O15       1.0  0.19833  0.93600  0.16640  1.0000
  O   O16       1.0  0.80167  0.93600  0.33360  1.0000
  O   O17       1.0  0.32863  0.50570  0.69540  1.0000
  O   O18       1.0  0.67137  0.50570  0.80460  1.0000
  O   O19       1.0  0.82863  0.00570  0.69540  1.0000
  O   O20       1.0  0.17137  0.00570  0.80460  1.0000
  O   O21       1.0  0.67137  0.49430  0.30460  1.0000
  O   O22       1.0  0.32863  0.49430  0.19540  1.0000
  O   O23       1.0  0.17137  0.99430  0.30460  1.0000
  O   O24       1.0  0.82863  0.99430  0.19540  1.0000
  O   O25       1.0  0.31625  0.30670  0.60520  1.0000
  O   O26       1.0  0.68375  0.30670  0.89480  1.0000
  O   O27       1.0  0.81625  0.80670  0.60520  1.0000
  O   O28       1.0  0.18375  0.80670  0.89480  1.0000
  O   O29       1.0  0.68375  0.69330  0.39480  1.0000
  O   O30       1.0  0.31625  0.69330  0.10520  1.0000
  O   O31       1.0  0.18375  0.19330  0.39480  1.0000
  O   O32       1.0  0.81625  0.19330  0.10520  1.0000
  O   O33       1.0  0.29861  0.11420  0.73350  1.0000
  O   O34       1.0  0.70139  0.11420  0.76650  1.0000
  O   O35       1.0  0.79861  0.61420  0.73350  1.0000
  O   O36       1.0  0.20139  0.61420  0.76650  1.0000
  O   O37       1.0  0.70139  0.88580  0.26650  1.0000
  O   O38       1.0  0.29861  0.88580  0.23350  1.0000
  O   O39       1.0  0.20139  0.38580  0.26650  1.0000
  O   O40       1.0  0.79861  0.38580  0.23350  1.0000
  O   O41       1.0  0.33330  0.85980  0.75130  1.0000
  O   O42       1.0  0.66670  0.85980  0.74870  1.0000
  O   O43       1.0  0.83330  0.35980  0.75130  1.0000
  O   O44       1.0  0.16670  0.35980  0.74870  1.0000
  O   O45       1.0  0.66670  0.14020  0.24870  1.0000
  O   O46       1.0  0.33330  0.14020  0.25130  1.0000
  O   O47       1.0  0.16670  0.64020  0.24870  1.0000
  O   O48       1.0  0.83330  0.64020  0.25130  1.0000
  O   O49       1.0  0.50000  0.34230  0.75000  1.0000
  O   O50       1.0  0.00000  0.84230  0.75000  1.0000
  O   O51       1.0  0.50000  0.65770  0.25000  1.0000
  O   O52       1.0  0.00000  0.15770  0.25000  1.0000
  F   F1        1.0  0.25606  0.88530  0.80250  1.0000
  F   F2        1.0  0.74394  0.88530  0.69750  1.0000
  F   F3        1.0  0.75606  0.38530  0.80250  1.0000
  F   F4        1.0  0.24394  0.38530  0.69750  1.0000
  F   F5        1.0  0.74394  0.11470  0.19750  1.0000
  F   F6        1.0  0.25606  0.11470  0.30250  1.0000
  F   F7        1.0  0.24394  0.61470  0.19750  1.0000
  F   F8        1.0  0.75606  0.61470  0.30250  1.0000
  C   C1        1.0  0.33700  0.36580  0.66640  1.0000
  C   C2        1.0  0.66300  0.36580  0.83360  1.0000
  C   C3        1.0  0.83700  0.86580  0.66640  1.0000
  C   C4        1.0  0.16300  0.86580  0.83360  1.0000
  C   C5        1.0  0.66300  0.63420  0.33360  1.0000
  C   C6        1.0  0.33700  0.63420  0.16640  1.0000
  C   C7        1.0  0.16300  0.13420  0.33360  1.0000
  C   C8        1.0  0.83700  0.13420  0.16640  1.0000
  C   C9        1.0  0.37860  0.26580  0.70940  1.0000
  C   C10       1.0  0.62140  0.26580  0.79060  1.0000
  C   C11       1.0  0.87860  0.76580  0.70940  1.0000
  C   C12       1.0  0.12140  0.76580  0.79060  1.0000
  C   C13       1.0  0.62140  0.73420  0.29060  1.0000
  C   C14       1.0  0.37860  0.73420  0.20940  1.0000
  C   C15       1.0  0.12140  0.23420  0.29060  1.0000
  C   C16       1.0  0.87860  0.23420  0.20940  1.0000
  C   C17       1.0  0.42060  0.33840  0.71250  1.0000
  C   C18       1.0  0.57940  0.33840  0.78750  1.0000
  C   C19       1.0  0.92060  0.83840  0.71250  1.0000
  C   C20       1.0  0.07940  0.83840  0.78750  1.0000
  C   C21       1.0  0.57940  0.66160  0.28750  1.0000
  C   C22       1.0  0.42060  0.66160  0.21250  1.0000
  C   C23       1.0  0.07940  0.16160  0.28750  1.0000
  C   C24       1.0  0.92060  0.16160  0.21250  1.0000
  H   H1        1.0  0.42220  0.44530  0.69070  1.0000
  H   H2        1.0  0.57780  0.44530  0.80930  1.0000
  H   H3        1.0  0.92220  0.94530  0.69070  1.0000
  H   H4        1.0  0.07780  0.94530  0.80930  1.0000
  H   H5        1.0  0.57780  0.55470  0.30930  1.0000
  H   H6        1.0  0.42220  0.55470  0.19070  1.0000
  H   H7        1.0  0.07780  0.05470  0.30930  1.0000
  H   H8        1.0  0.92220  0.05470  0.19070  1.0000
  C   C25       1.0  0.46000  0.25350  0.74740  1.0000
  C   C26       1.0  0.54000  0.25350  0.75260  1.0000
  C   C27       1.0  0.96000  0.75350  0.74740  1.0000
  C   C28       1.0  0.04000  0.75350  0.75260  1.0000
  C   C29       1.0  0.54000  0.74650  0.25260  1.0000
  C   C30       1.0  0.46000  0.74650  0.24740  1.0000
  C   C31       1.0  0.04000  0.24650  0.25260  1.0000
  C   C32       1.0  0.96000  0.24650  0.24740  1.0000
  C   C33       1.0  0.45880  0.09790  0.78190  1.0000
  C   C34       1.0  0.54120  0.09790  0.71810  1.0000
  C   C35       1.0  0.95880  0.59790  0.78190  1.0000
  C   C36       1.0  0.04120  0.59790  0.71810  1.0000
  C   C37       1.0  0.54120  0.90210  0.21810  1.0000
  C   C38       1.0  0.45880  0.90210  0.28190  1.0000
  C   C39       1.0  0.04120  0.40210  0.21810  1.0000
  C   C40       1.0  0.95880  0.40210  0.28190  1.0000
  H   H9        1.0  0.48550  0.04270  0.80680  1.0000
  H   H10       1.0  0.51450  0.04270  0.69320  1.0000
  H   H11       1.0  0.98550  0.54270  0.80680  1.0000
  H   H12       1.0  0.01450  0.54270  0.69320  1.0000
  H   H13       1.0  0.51450  0.95730  0.19320  1.0000
  H   H14       1.0  0.48550  0.95730  0.30680  1.0000
  H   H15       1.0  0.01450  0.45730  0.19320  1.0000
  H   H16       1.0  0.98550  0.45730  0.30680  1.0000
  C   C41       1.0  0.41700  0.02510  0.77860  1.0000
  C   C42       1.0  0.58300  0.02510  0.72140  1.0000
  C   C43       1.0  0.91700  0.52510  0.77860  1.0000
  C   C44       1.0  0.08300  0.52510  0.72140  1.0000
  C   C45       1.0  0.58300  0.97490  0.22140  1.0000
  C   C46       1.0  0.41700  0.97490  0.27860  1.0000
  C   C47       1.0  0.08300  0.47490  0.22140  1.0000
  C   C48       1.0  0.91700  0.47490  0.27860  1.0000
  H   H17       1.0  0.41590  0.91920  0.80140  1.0000
  H   H18       1.0  0.58410  0.91920  0.69860  1.0000
  H   H19       1.0  0.91590  0.41920  0.80140  1.0000
  H   H20       1.0  0.08410  0.41920  0.69860  1.0000
  H   H21       1.0  0.58410  0.08080  0.19860  1.0000
  H   H22       1.0  0.41590  0.08080  0.30140  1.0000
  H   H23       1.0  0.08410  0.58080  0.19860  1.0000
  H   H24       1.0  0.91590  0.58080  0.30140  1.0000
  C   C49       1.0  0.37700  0.10490  0.74260  1.0000
  C   C50       1.0  0.62300  0.10490  0.75740  1.0000
  C   C51       1.0  0.87700  0.60490  0.74260  1.0000
  C   C52       1.0  0.12300  0.60490  0.75740  1.0000
  C   C53       1.0  0.62300  0.89510  0.25740  1.0000
  C   C54       1.0  0.37700  0.89510  0.24260  1.0000
  C   C55       1.0  0.12300  0.39510  0.25740  1.0000
  C   C56       1.0  0.87700  0.39510  0.24260  1.0000
  C   C57       1.0  0.33310  0.02170  0.74270  1.0000
  C   C58       1.0  0.66690  0.02170  0.75730  1.0000
  C   C59       1.0  0.83310  0.52170  0.74270  1.0000
  C   C60       1.0  0.16690  0.52170  0.75730  1.0000
  C   C61       1.0  0.66690  0.97830  0.25730  1.0000
  C   C62       1.0  0.33310  0.97830  0.24270  1.0000
  C   C63       1.0  0.16690  0.47830  0.25730  1.0000
  C   C64       1.0  0.83310  0.47830  0.24270  1.0000
