data_image0
_chemical_formula_structural       Cu4Fe4O48C24H24
_chemical_formula_sum              "Cu4 Fe4 O48 C24 H24"
_cell_length_a       8.3771
_cell_length_b       14.095
_cell_length_c       13.6352
_cell_angle_alpha    90
_cell_angle_beta     92.975
_cell_angle_gamma    90

_space_group_name_H-M_alt    "P 1"
_space_group_IT_number       1

loop_
  _space_group_symop_operation_xyz
  'x, y, z'

loop_
  _atom_site_type_symbol
  _atom_site_label
  _atom_site_symmetry_multiplicity
  _atom_site_fract_x
  _atom_site_fract_y
  _atom_site_fract_z
  _atom_site_occupancy
  Cu  Cu1       1.0  0.50000  0.82630  0.25000  1.0000
  Cu  Cu2       1.0  0.00000  0.32630  0.25000  1.0000
  Cu  Cu3       1.0  0.50000  0.17370  0.75000  1.0000
  Cu  Cu4       1.0  0.00000  0.67370  0.75000  1.0000
  Fe  Fe1       1.0  0.50000  0.50000  0.00000  1.0000
  Fe  Fe2       1.0  0.50000  0.50000  0.50000  1.0000
  Fe  Fe3       1.0  0.00000  0.00000  0.00000  1.0000
  Fe  Fe4       1.0  0.00000  0.00000  0.50000  1.0000
  O   O1        1.0  0.55200  0.73010  0.14000  1.0000
  O   O2        1.0  0.44800  0.73010  0.36000  1.0000
  O   O3        1.0  0.05200  0.23010  0.14000  1.0000
  O   O4        1.0  0.94800  0.23010  0.36000  1.0000
  O   O5        1.0  0.44800  0.26990  0.86000  1.0000
  O   O6        1.0  0.55200  0.26990  0.64000  1.0000
  O   O7        1.0  0.94800  0.76990  0.86000  1.0000
  O   O8        1.0  0.05200  0.76990  0.64000  1.0000
  O   O9        1.0  0.57000  0.93300  0.15400  1.0000
  O   O10       1.0  0.43000  0.93300  0.34600  1.0000
  O   O11       1.0  0.07000  0.43300  0.15400  1.0000
  O   O12       1.0  0.93000  0.43300  0.34600  1.0000
  O   O13       1.0  0.43000  0.06700  0.84600  1.0000
  O   O14       1.0  0.57000  0.06700  0.65400  1.0000
  O   O15       1.0  0.93000  0.56700  0.84600  1.0000
  O   O16       1.0  0.07000  0.56700  0.65400  1.0000
  O   O17       1.0  0.73600  0.82000  0.32600  1.0000
  O   O18       1.0  0.26400  0.82000  0.17400  1.0000
  O   O19       1.0  0.23600  0.32000  0.32600  1.0000
  O   O20       1.0  0.76400  0.32000  0.17400  1.0000
  O   O21       1.0  0.26400  0.18000  0.67400  1.0000
  O   O22       1.0  0.73600  0.18000  0.82600  1.0000
  O   O23       1.0  0.76400  0.68000  0.67400  1.0000
  O   O24       1.0  0.23600  0.68000  0.82600  1.0000
  O   O25       1.0  0.57500  0.57570  0.10800  1.0000
  O   O26       1.0  0.42500  0.57570  0.39200  1.0000
  O   O27       1.0  0.07500  0.07570  0.10800  1.0000
  O   O28       1.0  0.92500  0.07570  0.39200  1.0000
  O   O29       1.0  0.42500  0.42430  0.89200  1.0000
  O   O30       1.0  0.57500  0.42430  0.60800  1.0000
  O   O31       1.0  0.92500  0.92430  0.89200  1.0000
  O   O32       1.0  0.07500  0.92430  0.60800  1.0000
  O   O33       1.0  0.79700  0.96600  0.07400  1.0000
  O   O34       1.0  0.20300  0.96600  0.42600  1.0000
  O   O35       1.0  0.29700  0.46600  0.07400  1.0000
  O   O36       1.0  0.70300  0.46600  0.42600  1.0000
  O   O37       1.0  0.20300  0.03400  0.92600  1.0000
  O   O38       1.0  0.79700  0.03400  0.57400  1.0000
  O   O39       1.0  0.70300  0.53400  0.92600  1.0000
  O   O40       1.0  0.29700  0.53400  0.57400  1.0000
  O   O41       1.0  0.88300  0.89190  0.44500  1.0000
  O   O42       1.0  0.11700  0.89190  0.05500  1.0000
  O   O43       1.0  0.38300  0.39190  0.44500  1.0000
  O   O44       1.0  0.61700  0.39190  0.05500  1.0000
  O   O45       1.0  0.11700  0.10810  0.55500  1.0000
  O   O46       1.0  0.88300  0.10810  0.94500  1.0000
  O   O47       1.0  0.61700  0.60810  0.55500  1.0000
  O   O48       1.0  0.38300  0.60810  0.94500  1.0000
  C   C1        1.0  0.62000  0.65500  0.15100  1.0000
  C   C2        1.0  0.38000  0.65500  0.34900  1.0000
  C   C3        1.0  0.12000  0.15500  0.15100  1.0000
  C   C4        1.0  0.88000  0.15500  0.34900  1.0000
  C   C5        1.0  0.38000  0.34500  0.84900  1.0000
  C   C6        1.0  0.62000  0.34500  0.65100  1.0000
  C   C7        1.0  0.88000  0.84500  0.84900  1.0000
  C   C8        1.0  0.12000  0.84500  0.65100  1.0000
  C   C9        1.0  0.71700  0.92300  0.14200  1.0000
  C   C10       1.0  0.28300  0.92300  0.35800  1.0000
  C   C11       1.0  0.21700  0.42300  0.14200  1.0000
  C   C12       1.0  0.78300  0.42300  0.35800  1.0000
  C   C13       1.0  0.28300  0.07700  0.85800  1.0000
  C   C14       1.0  0.71700  0.07700  0.64200  1.0000
  C   C15       1.0  0.78300  0.57700  0.85800  1.0000
  C   C16       1.0  0.21700  0.57700  0.64200  1.0000
  C   C17       1.0  0.77500  0.89270  0.37800  1.0000
  C   C18       1.0  0.22500  0.89270  0.12200  1.0000
  C   C19       1.0  0.27500  0.39270  0.37800  1.0000
  C   C20       1.0  0.72500  0.39270  0.12200  1.0000
  C   C21       1.0  0.22500  0.10730  0.62200  1.0000
  C   C22       1.0  0.77500  0.10730  0.87800  1.0000
  C   C23       1.0  0.72500  0.60730  0.62200  1.0000
  C   C24       1.0  0.27500  0.60730  0.87800  1.0000
  H   H1        1.0  0.71457  0.65340  0.19416  1.0000
  H   H2        1.0  0.28543  0.65340  0.30584  1.0000
  H   H3        1.0  0.21457  0.15340  0.19416  1.0000
  H   H4        1.0  0.78543  0.15340  0.30584  1.0000
  H   H5        1.0  0.28543  0.34660  0.80584  1.0000
  H   H6        1.0  0.71457  0.34660  0.69416  1.0000
  H   H7        1.0  0.78543  0.84660  0.80584  1.0000
  H   H8        1.0  0.21457  0.84660  0.69416  1.0000
  H   H9        1.0  0.77489  0.87955  0.18437  1.0000
  H   H10       1.0  0.22511  0.87955  0.31563  1.0000
  H   H11       1.0  0.27489  0.37955  0.18437  1.0000
  H   H12       1.0  0.72511  0.37955  0.31563  1.0000
  H   H13       1.0  0.22511  0.12045  0.81563  1.0000
  H   H14       1.0  0.77489  0.12045  0.68437  1.0000
  H   H15       1.0  0.72511  0.62045  0.81563  1.0000
  H   H16       1.0  0.27489  0.62045  0.68437  1.0000
  H   H17       1.0  0.71920  0.95103  0.36445  1.0000
  H   H18       1.0  0.28080  0.95103  0.13555  1.0000
  H   H19       1.0  0.21920  0.45103  0.36445  1.0000
  H   H20       1.0  0.78080  0.45103  0.13555  1.0000
  H   H21       1.0  0.28080  0.04897  0.63555  1.0000
  H   H22       1.0  0.71920  0.04897  0.86445  1.0000
  H   H23       1.0  0.78080  0.54897  0.63555  1.0000
  H   H24       1.0  0.21920  0.54897  0.86445  1.0000
