data_image0
_chemical_formula_structural       Mn4O24C8H8C4H4
_chemical_formula_sum              "Mn4 O24 C12 H12"
_cell_length_a       8.5538
_cell_length_b       12.0096
_cell_length_c       9.0457
_cell_angle_alpha    90
_cell_angle_beta     90
_cell_angle_gamma    90

_space_group_name_H-M_alt    "P 1"
_space_group_IT_number       1

loop_
  _space_group_symop_operation_xyz
  'x, y, z'

loop_
  _atom_site_type_symbol
  _atom_site_label
  _atom_site_symmetry_multiplicity
  _atom_site_fract_x
  _atom_site_fract_y
  _atom_site_fract_z
  _atom_site_occupancy
  Mn  Mn1       1.0  0.25094  0.75000  0.25000  1.0000
  Mn  Mn2       1.0  0.24906  0.25000  0.25000  1.0000
  Mn  Mn3       1.0  0.74906  0.25000  0.75000  1.0000
  Mn  Mn4       1.0  0.75094  0.75000  0.75000  1.0000
  O   O1        1.0  0.44450  0.69194  0.38875  1.0000
  O   O2        1.0  0.05550  0.30806  0.38875  1.0000
  O   O3        1.0  0.44450  0.80806  0.11125  1.0000
  O   O4        1.0  0.05550  0.19194  0.11125  1.0000
  O   O5        1.0  0.55550  0.30806  0.61125  1.0000
  O   O6        1.0  0.94450  0.69194  0.61125  1.0000
  O   O7        1.0  0.55550  0.19194  0.88875  1.0000
  O   O8        1.0  0.94450  0.80806  0.88875  1.0000
  O   O9        1.0  0.59777  0.68130  0.58362  1.0000
  O   O10       1.0  0.90223  0.31870  0.58362  1.0000
  O   O11       1.0  0.59777  0.81870  0.91638  1.0000
  O   O12       1.0  0.90223  0.18130  0.91638  1.0000
  O   O13       1.0  0.40223  0.31870  0.41638  1.0000
  O   O14       1.0  0.09777  0.68130  0.41638  1.0000
  O   O15       1.0  0.40223  0.18130  0.08362  1.0000
  O   O16       1.0  0.09777  0.81870  0.08362  1.0000
  O   O17       1.0  0.24612  0.59196  0.13036  1.0000
  O   O18       1.0  0.25388  0.40804  0.13036  1.0000
  O   O19       1.0  0.24612  0.90804  0.36964  1.0000
  O   O20       1.0  0.25388  0.09196  0.36964  1.0000
  O   O21       1.0  0.75388  0.40804  0.86964  1.0000
  O   O22       1.0  0.74612  0.59196  0.86964  1.0000
  O   O23       1.0  0.75388  0.09196  0.63036  1.0000
  O   O24       1.0  0.74612  0.90804  0.63036  1.0000
  C   C1        1.0  0.48302  0.71746  0.51560  1.0000
  C   C2        1.0  0.01698  0.28254  0.51560  1.0000
  C   C3        1.0  0.48302  0.78254  0.98440  1.0000
  C   C4        1.0  0.01698  0.21746  0.98440  1.0000
  C   C5        1.0  0.51698  0.28254  0.48440  1.0000
  C   C6        1.0  0.98302  0.71746  0.48440  1.0000
  C   C7        1.0  0.51698  0.21746  0.01560  1.0000
  C   C8        1.0  0.98302  0.78254  0.01560  1.0000
  H   H1        1.0  0.42000  0.76860  0.56470  1.0000
  H   H2        1.0  0.08000  0.23140  0.56470  1.0000
  H   H3        1.0  0.42000  0.73140  0.93530  1.0000
  H   H4        1.0  0.08000  0.26860  0.93530  1.0000
  H   H5        1.0  0.58000  0.23140  0.43530  1.0000
  H   H6        1.0  0.92000  0.76860  0.43530  1.0000
  H   H7        1.0  0.58000  0.26860  0.06470  1.0000
  H   H8        1.0  0.92000  0.73140  0.06470  1.0000
  C   C9        1.0  0.25000  0.50000  0.19100  1.0000
  C   C10       1.0  0.25000  0.00000  0.30900  1.0000
  C   C11       1.0  0.75000  0.50000  0.80900  1.0000
  C   C12       1.0  0.75000  0.00000  0.69100  1.0000
  H   H9        1.0  0.25000  0.50000  0.29380  1.0000
  H   H10       1.0  0.25000  0.00000  0.20620  1.0000
  H   H11       1.0  0.75000  0.50000  0.70620  1.0000
  H   H12       1.0  0.75000  0.00000  0.79380  1.0000
