data_image0
_chemical_formula_structural       Mn4O24C8H8C4H4
_chemical_formula_sum              "Mn4 O24 C12 H12"
_cell_length_a       8.522
_cell_length_b       11.9877
_cell_length_c       9.054
_cell_angle_alpha    90
_cell_angle_beta     90
_cell_angle_gamma    90

_space_group_name_H-M_alt    "P 1"
_space_group_IT_number       1

loop_
  _space_group_symop_operation_xyz
  'x, y, z'

loop_
  _atom_site_type_symbol
  _atom_site_label
  _atom_site_symmetry_multiplicity
  _atom_site_fract_x
  _atom_site_fract_y
  _atom_site_fract_z
  _atom_site_occupancy
  Mn  Mn1       1.0  0.24866  0.75000  0.25000  1.0000
  Mn  Mn2       1.0  0.25134  0.25000  0.25000  1.0000
  Mn  Mn3       1.0  0.75134  0.25000  0.75000  1.0000
  Mn  Mn4       1.0  0.74866  0.75000  0.75000  1.0000
  O   O1        1.0  0.44309  0.69132  0.38772  1.0000
  O   O2        1.0  0.05691  0.30868  0.38772  1.0000
  O   O3        1.0  0.44309  0.80868  0.11228  1.0000
  O   O4        1.0  0.05691  0.19132  0.11228  1.0000
  O   O5        1.0  0.55691  0.30868  0.61228  1.0000
  O   O6        1.0  0.94309  0.69132  0.61228  1.0000
  O   O7        1.0  0.55691  0.19132  0.88772  1.0000
  O   O8        1.0  0.94309  0.80868  0.88772  1.0000
  O   O9        1.0  0.59585  0.67991  0.58391  1.0000
  O   O10       1.0  0.90415  0.32009  0.58391  1.0000
  O   O11       1.0  0.59585  0.82009  0.91609  1.0000
  O   O12       1.0  0.90415  0.17991  0.91609  1.0000
  O   O13       1.0  0.40415  0.32009  0.41609  1.0000
  O   O14       1.0  0.09585  0.67991  0.41609  1.0000
  O   O15       1.0  0.40415  0.17991  0.08391  1.0000
  O   O16       1.0  0.09585  0.82009  0.08391  1.0000
  O   O17       1.0  0.24400  0.59239  0.12887  1.0000
  O   O18       1.0  0.25600  0.40761  0.12887  1.0000
  O   O19       1.0  0.24400  0.90761  0.37113  1.0000
  O   O20       1.0  0.25600  0.09239  0.37113  1.0000
  O   O21       1.0  0.75600  0.40761  0.87113  1.0000
  O   O22       1.0  0.74400  0.59239  0.87113  1.0000
  O   O23       1.0  0.75600  0.09239  0.62887  1.0000
  O   O24       1.0  0.74400  0.90761  0.62887  1.0000
  C   C1        1.0  0.48067  0.71679  0.51543  1.0000
  C   C2        1.0  0.01933  0.28321  0.51543  1.0000
  C   C3        1.0  0.48067  0.78321  0.98457  1.0000
  C   C4        1.0  0.01933  0.21679  0.98457  1.0000
  C   C5        1.0  0.51933  0.28321  0.48457  1.0000
  C   C6        1.0  0.98067  0.71679  0.48457  1.0000
  C   C7        1.0  0.51933  0.21679  0.01543  1.0000
  C   C8        1.0  0.98067  0.78321  0.01543  1.0000
  H   H1        1.0  0.41720  0.76800  0.56430  1.0000
  H   H2        1.0  0.08280  0.23200  0.56430  1.0000
  H   H3        1.0  0.41720  0.73200  0.93570  1.0000
  H   H4        1.0  0.08280  0.26800  0.93570  1.0000
  H   H5        1.0  0.58280  0.23200  0.43570  1.0000
  H   H6        1.0  0.91720  0.76800  0.43570  1.0000
  H   H7        1.0  0.58280  0.26800  0.06430  1.0000
  H   H8        1.0  0.91720  0.73200  0.06430  1.0000
  C   C9        1.0  0.25000  0.50000  0.18990  1.0000
  C   C10       1.0  0.25000  0.00000  0.31010  1.0000
  C   C11       1.0  0.75000  0.50000  0.81010  1.0000
  C   C12       1.0  0.75000  0.00000  0.68990  1.0000
  H   H9        1.0  0.25000  0.50000  0.29260  1.0000
  H   H10       1.0  0.25000  0.00000  0.20740  1.0000
  H   H11       1.0  0.75000  0.50000  0.70740  1.0000
  H   H12       1.0  0.75000  0.00000  0.79260  1.0000
