data_image0
_chemical_formula_structural       Zn4O24C8H8C4H4
_chemical_formula_sum              "Zn4 O24 C12 H12"
_cell_length_a       8.34
_cell_length_b       11.7244
_cell_length_c       8.9461
_cell_angle_alpha    90
_cell_angle_beta     90
_cell_angle_gamma    90

_space_group_name_H-M_alt    "P 1"
_space_group_IT_number       1

loop_
  _space_group_symop_operation_xyz
  'x, y, z'

loop_
  _atom_site_type_symbol
  _atom_site_label
  _atom_site_symmetry_multiplicity
  _atom_site_fract_x
  _atom_site_fract_y
  _atom_site_fract_z
  _atom_site_occupancy
  Zn  Zn1       1.0  0.25723  0.75000  0.25000  1.0000
  Zn  Zn2       1.0  0.24277  0.25000  0.25000  1.0000
  Zn  Zn3       1.0  0.74277  0.25000  0.75000  1.0000
  Zn  Zn4       1.0  0.75723  0.75000  0.75000  1.0000
  O   O1        1.0  0.40796  0.81898  0.41338  1.0000
  O   O2        1.0  0.09204  0.18102  0.41338  1.0000
  O   O3        1.0  0.09204  0.31898  0.08662  1.0000
  O   O4        1.0  0.40796  0.68102  0.08662  1.0000
  O   O5        1.0  0.59204  0.18102  0.58662  1.0000
  O   O6        1.0  0.90796  0.81898  0.58662  1.0000
  O   O7        1.0  0.90796  0.68102  0.91338  1.0000
  O   O8        1.0  0.59204  0.31898  0.91338  1.0000
  O   O9        1.0  0.56435  0.80778  0.61324  1.0000
  O   O10       1.0  0.93565  0.19222  0.61324  1.0000
  O   O11       1.0  0.93565  0.30778  0.88676  1.0000
  O   O12       1.0  0.56435  0.69222  0.88676  1.0000
  O   O13       1.0  0.43565  0.19222  0.38676  1.0000
  O   O14       1.0  0.06435  0.80778  0.38676  1.0000
  O   O15       1.0  0.06435  0.69222  0.11324  1.0000
  O   O16       1.0  0.43565  0.30778  0.11324  1.0000
  O   O17       1.0  0.25869  0.59468  0.36571  1.0000
  O   O18       1.0  0.24131  0.40532  0.36571  1.0000
  O   O19       1.0  0.24131  0.09468  0.13429  1.0000
  O   O20       1.0  0.25869  0.90532  0.13429  1.0000
  O   O21       1.0  0.74131  0.40532  0.63429  1.0000
  O   O22       1.0  0.75869  0.59468  0.63429  1.0000
  O   O23       1.0  0.75869  0.90532  0.86571  1.0000
  O   O24       1.0  0.74131  0.09468  0.86571  1.0000
  C   C1        1.0  0.52481  0.77868  0.48371  1.0000
  C   C2        1.0  0.97519  0.22132  0.48371  1.0000
  C   C3        1.0  0.97519  0.27868  0.01629  1.0000
  C   C4        1.0  0.52481  0.72132  0.01629  1.0000
  C   C5        1.0  0.47519  0.22132  0.51629  1.0000
  C   C6        1.0  0.02481  0.77868  0.51629  1.0000
  C   C7        1.0  0.02481  0.72132  0.98371  1.0000
  C   C8        1.0  0.47519  0.27868  0.98371  1.0000
  H   H1        1.0  0.58650  0.72330  0.43640  1.0000
  H   H2        1.0  0.91350  0.27670  0.43640  1.0000
  H   H3        1.0  0.91350  0.22330  0.06360  1.0000
  H   H4        1.0  0.58650  0.77670  0.06360  1.0000
  H   H5        1.0  0.41350  0.27670  0.56360  1.0000
  H   H6        1.0  0.08650  0.72330  0.56360  1.0000
  H   H7        1.0  0.08650  0.77670  0.93640  1.0000
  H   H8        1.0  0.41350  0.22330  0.93640  1.0000
  C   C9        1.0  0.25000  0.50000  0.30196  1.0000
  C   C10       1.0  0.25000  0.00000  0.19804  1.0000
  C   C11       1.0  0.75000  0.50000  0.69804  1.0000
  C   C12       1.0  0.75000  0.00000  0.80196  1.0000
  H   H9        1.0  0.25000  0.50000  0.19800  1.0000
  H   H10       1.0  0.25000  0.00000  0.30200  1.0000
  H   H11       1.0  0.75000  0.50000  0.80200  1.0000
  H   H12       1.0  0.75000  0.00000  0.69800  1.0000
