data_image0
_chemical_formula_structural       Zn4O24C8H8C4H4
_chemical_formula_sum              "Zn4 O24 C12 H12"
_cell_length_a       8.3106
_cell_length_b       11.699
_cell_length_c       8.9515
_cell_angle_alpha    90
_cell_angle_beta     90
_cell_angle_gamma    90

_space_group_name_H-M_alt    "P 1"
_space_group_IT_number       1

loop_
  _space_group_symop_operation_xyz
  'x, y, z'

loop_
  _atom_site_type_symbol
  _atom_site_label
  _atom_site_symmetry_multiplicity
  _atom_site_fract_x
  _atom_site_fract_y
  _atom_site_fract_z
  _atom_site_occupancy
  Zn  Zn1       1.0  0.25922  0.75000  0.25000  1.0000
  Zn  Zn2       1.0  0.24078  0.25000  0.25000  1.0000
  Zn  Zn3       1.0  0.74078  0.25000  0.75000  1.0000
  Zn  Zn4       1.0  0.75922  0.75000  0.75000  1.0000
  O   O1        1.0  0.40941  0.82012  0.41314  1.0000
  O   O2        1.0  0.09059  0.17988  0.41314  1.0000
  O   O3        1.0  0.09059  0.32012  0.08686  1.0000
  O   O4        1.0  0.40941  0.67988  0.08686  1.0000
  O   O5        1.0  0.59059  0.17988  0.58686  1.0000
  O   O6        1.0  0.90941  0.82012  0.58686  1.0000
  O   O7        1.0  0.90941  0.67988  0.91314  1.0000
  O   O8        1.0  0.59059  0.32012  0.91314  1.0000
  O   O9        1.0  0.56565  0.80817  0.61405  1.0000
  O   O10       1.0  0.93435  0.19183  0.61405  1.0000
  O   O11       1.0  0.93435  0.30817  0.88595  1.0000
  O   O12       1.0  0.56565  0.69183  0.88595  1.0000
  O   O13       1.0  0.43435  0.19183  0.38595  1.0000
  O   O14       1.0  0.06565  0.80817  0.38595  1.0000
  O   O15       1.0  0.06565  0.69183  0.11405  1.0000
  O   O16       1.0  0.43435  0.30817  0.11405  1.0000
  O   O17       1.0  0.26019  0.59499  0.36678  1.0000
  O   O18       1.0  0.23981  0.40501  0.36678  1.0000
  O   O19       1.0  0.23981  0.09499  0.13322  1.0000
  O   O20       1.0  0.26019  0.90501  0.13322  1.0000
  O   O21       1.0  0.73981  0.40501  0.63322  1.0000
  O   O22       1.0  0.76019  0.59499  0.63322  1.0000
  O   O23       1.0  0.76019  0.90501  0.86678  1.0000
  O   O24       1.0  0.73981  0.09499  0.86678  1.0000
  C   C1        1.0  0.52677  0.77909  0.48379  1.0000
  C   C2        1.0  0.97323  0.22091  0.48379  1.0000
  C   C3        1.0  0.97323  0.27909  0.01621  1.0000
  C   C4        1.0  0.52677  0.72091  0.01621  1.0000
  C   C5        1.0  0.47323  0.22091  0.51621  1.0000
  C   C6        1.0  0.02677  0.77909  0.51621  1.0000
  C   C7        1.0  0.02677  0.72091  0.98379  1.0000
  C   C8        1.0  0.47323  0.27909  0.98379  1.0000
  H   H1        1.0  0.58880  0.72360  0.43660  1.0000
  H   H2        1.0  0.91120  0.27640  0.43660  1.0000
  H   H3        1.0  0.91120  0.22360  0.06340  1.0000
  H   H4        1.0  0.58880  0.77640  0.06340  1.0000
  H   H5        1.0  0.41120  0.27640  0.56340  1.0000
  H   H6        1.0  0.08880  0.72360  0.56340  1.0000
  H   H7        1.0  0.08880  0.77640  0.93660  1.0000
  H   H8        1.0  0.41120  0.22360  0.93660  1.0000
  C   C9        1.0  0.25000  0.50000  0.30220  1.0000
  C   C10       1.0  0.25000  0.00000  0.19780  1.0000
  C   C11       1.0  0.75000  0.50000  0.69780  1.0000
  C   C12       1.0  0.75000  0.00000  0.80220  1.0000
  H   H9        1.0  0.25000  0.50000  0.19830  1.0000
  H   H10       1.0  0.25000  0.00000  0.30170  1.0000
  H   H11       1.0  0.75000  0.50000  0.80170  1.0000
  H   H12       1.0  0.75000  0.00000  0.69830  1.0000
