data_image0
_chemical_formula_structural       Cu4O24C4H4C4H4C4H4
_chemical_formula_sum              "Cu4 O24 C12 H12"
_cell_length_a       8.541
_cell_length_b       9.0472
_cell_length_c       11.3619
_cell_angle_alpha    90
_cell_angle_beta     90
_cell_angle_gamma    90

_space_group_name_H-M_alt    "P 1"
_space_group_IT_number       1

loop_
  _space_group_symop_operation_xyz
  'x, y, z'

loop_
  _atom_site_type_symbol
  _atom_site_label
  _atom_site_symmetry_multiplicity
  _atom_site_fract_x
  _atom_site_fract_y
  _atom_site_fract_z
  _atom_site_occupancy
  Cu  Cu1       1.0  0.99558  0.99923  0.47639  1.0000
  Cu  Cu2       1.0  0.00442  0.00077  0.97639  1.0000
  Cu  Cu3       1.0  0.50442  0.49923  0.97639  1.0000
  Cu  Cu4       1.0  0.49558  0.50077  0.47639  1.0000
  O   O1        1.0  0.99958  0.88902  0.32290  1.0000
  O   O2        1.0  0.00042  0.11098  0.82290  1.0000
  O   O3        1.0  0.50042  0.38902  0.82290  1.0000
  O   O4        1.0  0.49958  0.61098  0.32290  1.0000
  O   O5        1.0  0.20877  0.15285  0.41576  1.0000
  O   O6        1.0  0.79123  0.84715  0.91576  1.0000
  O   O7        1.0  0.29123  0.65285  0.91576  1.0000
  O   O8        1.0  0.70877  0.34715  0.41576  1.0000
  O   O9        1.0  0.01281  0.89077  0.12848  1.0000
  O   O10       1.0  0.98719  0.10923  0.62848  1.0000
  O   O11       1.0  0.48719  0.39077  0.62848  1.0000
  O   O12       1.0  0.51281  0.60923  0.12848  1.0000
  O   O13       1.0  0.36301  0.34866  0.40468  1.0000
  O   O14       1.0  0.63699  0.65134  0.90468  1.0000
  O   O15       1.0  0.13699  0.84866  0.90468  1.0000
  O   O16       1.0  0.86301  0.15134  0.40468  1.0000
  O   O17       1.0  0.16842  0.87742  0.53868  1.0000
  O   O18       1.0  0.83158  0.12258  0.03868  1.0000
  O   O19       1.0  0.33158  0.37742  0.03868  1.0000
  O   O20       1.0  0.66842  0.62258  0.53868  1.0000
  O   O21       1.0  0.32140  0.68027  0.55083  1.0000
  O   O22       1.0  0.67860  0.31973  0.05083  1.0000
  O   O23       1.0  0.17860  0.18027  0.05083  1.0000
  O   O24       1.0  0.82140  0.81973  0.55083  1.0000
  C   C1        1.0  0.20500  0.74530  0.51242  1.0000
  C   C2        1.0  0.79500  0.25470  0.01242  1.0000
  C   C3        1.0  0.29500  0.24530  0.01242  1.0000
  C   C4        1.0  0.70500  0.75470  0.51242  1.0000
  H   H1        1.0  0.13980  0.69430  0.46090  1.0000
  H   H2        1.0  0.86020  0.30570  0.96090  1.0000
  H   H3        1.0  0.36020  0.19430  0.96090  1.0000
  H   H4        1.0  0.63980  0.80570  0.46090  1.0000
  C   C5        1.0  0.00740  0.95468  0.22590  1.0000
  C   C6        1.0  0.99260  0.04532  0.72590  1.0000
  C   C7        1.0  0.49260  0.45468  0.72590  1.0000
  C   C8        1.0  0.50740  0.54532  0.22590  1.0000
  H   H5        1.0  0.00920  0.05750  0.22650  1.0000
  H   H6        1.0  0.99080  0.94250  0.72650  1.0000
  H   H7        1.0  0.49080  0.55750  0.72650  1.0000
  H   H8        1.0  0.50920  0.44250  0.22650  1.0000
  C   C9        1.0  0.24798  0.27830  0.44698  1.0000
  C   C10       1.0  0.75202  0.72170  0.94698  1.0000
  C   C11       1.0  0.25202  0.77830  0.94698  1.0000
  C   C12       1.0  0.74798  0.22170  0.44698  1.0000
  H   H9        1.0  0.18910  0.32400  0.50540  1.0000
  H   H10       1.0  0.81090  0.67600  0.00540  1.0000
  H   H11       1.0  0.31090  0.82400  0.00540  1.0000
  H   H12       1.0  0.68910  0.17600  0.50540  1.0000
