data_image0
_chemical_formula_structural       Ni4O24C4H4C8H8
_chemical_formula_sum              "Ni4 O24 C12 H12"
_cell_length_a       8.261
_cell_length_b       11.6414
_cell_length_c       8.8332
_cell_angle_alpha    90
_cell_angle_beta     90
_cell_angle_gamma    90

_space_group_name_H-M_alt    "P 1"
_space_group_IT_number       1

loop_
  _space_group_symop_operation_xyz
  'x, y, z'

loop_
  _atom_site_type_symbol
  _atom_site_label
  _atom_site_symmetry_multiplicity
  _atom_site_fract_x
  _atom_site_fract_y
  _atom_site_fract_z
  _atom_site_occupancy
  Ni  Ni1       1.0  0.25405  0.25000  0.25000  1.0000
  Ni  Ni2       1.0  0.24595  0.75000  0.25000  1.0000
  Ni  Ni3       1.0  0.74595  0.75000  0.75000  1.0000
  Ni  Ni4       1.0  0.75405  0.25000  0.75000  1.0000
  O   O1        1.0  0.25570  0.40500  0.36248  1.0000
  O   O2        1.0  0.24430  0.59500  0.36248  1.0000
  O   O3        1.0  0.24430  0.90500  0.13752  1.0000
  O   O4        1.0  0.25570  0.09500  0.13752  1.0000
  O   O5        1.0  0.74430  0.59500  0.63752  1.0000
  O   O6        1.0  0.75570  0.40500  0.63752  1.0000
  O   O7        1.0  0.75570  0.09500  0.86248  1.0000
  O   O8        1.0  0.74430  0.90500  0.86248  1.0000
  O   O9        1.0  0.40781  0.18375  0.41197  1.0000
  O   O10       1.0  0.09219  0.81625  0.41197  1.0000
  O   O11       1.0  0.09219  0.68375  0.08803  1.0000
  O   O12       1.0  0.40781  0.31625  0.08803  1.0000
  O   O13       1.0  0.59219  0.81625  0.58803  1.0000
  O   O14       1.0  0.90781  0.18375  0.58803  1.0000
  O   O15       1.0  0.90781  0.31625  0.91197  1.0000
  O   O16       1.0  0.59219  0.68375  0.91197  1.0000
  O   O17       1.0  0.56754  0.19269  0.61169  1.0000
  O   O18       1.0  0.93246  0.80731  0.61169  1.0000
  O   O19       1.0  0.93246  0.69269  0.88831  1.0000
  O   O20       1.0  0.56754  0.30731  0.88831  1.0000
  O   O21       1.0  0.43246  0.80731  0.38831  1.0000
  O   O22       1.0  0.06754  0.19269  0.38831  1.0000
  O   O23       1.0  0.06754  0.30731  0.11169  1.0000
  O   O24       1.0  0.43246  0.69269  0.11169  1.0000
  C   C1        1.0  0.25000  0.50000  0.29930  1.0000
  C   C2        1.0  0.25000  0.00000  0.20070  1.0000
  C   C3        1.0  0.75000  0.50000  0.70070  1.0000
  C   C4        1.0  0.75000  0.00000  0.79930  1.0000
  H   H1        1.0  0.25000  0.50000  0.19400  1.0000
  H   H2        1.0  0.25000  0.00000  0.30600  1.0000
  H   H3        1.0  0.75000  0.50000  0.80600  1.0000
  H   H4        1.0  0.75000  0.00000  0.69400  1.0000
  C   C5        1.0  0.52480  0.22462  0.48300  1.0000
  C   C6        1.0  0.97520  0.77538  0.48300  1.0000
  C   C7        1.0  0.97520  0.72462  0.01700  1.0000
  C   C8        1.0  0.52480  0.27538  0.01700  1.0000
  C   C9        1.0  0.47520  0.77538  0.51700  1.0000
  C   C10       1.0  0.02480  0.22462  0.51700  1.0000
  C   C11       1.0  0.02480  0.27538  0.98300  1.0000
  C   C12       1.0  0.47520  0.72462  0.98300  1.0000
  H   H5        1.0  0.58420  0.28280  0.43690  1.0000
  H   H6        1.0  0.91580  0.71720  0.43690  1.0000
  H   H7        1.0  0.91580  0.78280  0.06310  1.0000
  H   H8        1.0  0.58420  0.21720  0.06310  1.0000
  H   H9        1.0  0.41580  0.71720  0.56310  1.0000
  H   H10       1.0  0.08420  0.28280  0.56310  1.0000
  H   H11       1.0  0.08420  0.21720  0.93690  1.0000
  H   H12       1.0  0.41580  0.78280  0.93690  1.0000
