data_image0
_chemical_formula_structural       Cu4O24C4H4C4H4C4H4
_chemical_formula_sum              "Cu4 O24 C12 H12"
_cell_length_a       8.5134
_cell_length_b       9.045
_cell_length_c       11.3434
_cell_angle_alpha    90
_cell_angle_beta     90
_cell_angle_gamma    90

_space_group_name_H-M_alt    "P 1"
_space_group_IT_number       1

loop_
  _space_group_symop_operation_xyz
  'x, y, z'

loop_
  _atom_site_type_symbol
  _atom_site_label
  _atom_site_symmetry_multiplicity
  _atom_site_fract_x
  _atom_site_fract_y
  _atom_site_fract_z
  _atom_site_occupancy
  Cu  Cu1       1.0  0.99421  0.99917  0.47638  1.0000
  Cu  Cu2       1.0  0.00579  0.00083  0.97638  1.0000
  Cu  Cu3       1.0  0.50579  0.49917  0.97638  1.0000
  Cu  Cu4       1.0  0.49421  0.50083  0.47638  1.0000
  O   O1        1.0  0.99850  0.88827  0.32324  1.0000
  O   O2        1.0  0.00150  0.11173  0.82324  1.0000
  O   O3        1.0  0.50150  0.38827  0.82324  1.0000
  O   O4        1.0  0.49850  0.61173  0.32324  1.0000
  O   O5        1.0  0.20735  0.15205  0.41557  1.0000
  O   O6        1.0  0.79265  0.84795  0.91557  1.0000
  O   O7        1.0  0.29265  0.65205  0.91557  1.0000
  O   O8        1.0  0.70735  0.34795  0.41557  1.0000
  O   O9        1.0  0.01384  0.88996  0.12830  1.0000
  O   O10       1.0  0.98616  0.11004  0.62830  1.0000
  O   O11       1.0  0.48616  0.38996  0.62830  1.0000
  O   O12       1.0  0.51384  0.61004  0.12830  1.0000
  O   O13       1.0  0.36149  0.34883  0.40388  1.0000
  O   O14       1.0  0.63851  0.65117  0.90388  1.0000
  O   O15       1.0  0.13851  0.84883  0.90388  1.0000
  O   O16       1.0  0.86149  0.15117  0.40388  1.0000
  O   O17       1.0  0.16759  0.87765  0.53895  1.0000
  O   O18       1.0  0.83241  0.12235  0.03895  1.0000
  O   O19       1.0  0.33241  0.37765  0.03895  1.0000
  O   O20       1.0  0.66759  0.62235  0.53895  1.0000
  O   O21       1.0  0.32074  0.67979  0.55146  1.0000
  O   O22       1.0  0.67926  0.32021  0.05146  1.0000
  O   O23       1.0  0.17926  0.17979  0.05146  1.0000
  O   O24       1.0  0.82074  0.82021  0.55146  1.0000
  C   C1        1.0  0.20360  0.74500  0.51295  1.0000
  C   C2        1.0  0.79640  0.25500  0.01295  1.0000
  C   C3        1.0  0.29640  0.24500  0.01295  1.0000
  C   C4        1.0  0.70360  0.75500  0.51295  1.0000
  H   H1        1.0  0.13770  0.69390  0.46180  1.0000
  H   H2        1.0  0.86230  0.30610  0.96180  1.0000
  H   H3        1.0  0.36230  0.19390  0.96180  1.0000
  H   H4        1.0  0.63770  0.80610  0.46180  1.0000
  C   C5        1.0  0.00790  0.95430  0.22590  1.0000
  C   C6        1.0  0.99210  0.04570  0.72590  1.0000
  C   C7        1.0  0.49210  0.45430  0.72590  1.0000
  C   C8        1.0  0.50790  0.54570  0.22590  1.0000
  H   H5        1.0  0.01070  0.05710  0.22650  1.0000
  H   H6        1.0  0.98930  0.94290  0.72650  1.0000
  H   H7        1.0  0.48930  0.55710  0.72650  1.0000
  H   H8        1.0  0.51070  0.44290  0.22650  1.0000
  C   C9        1.0  0.24640  0.27790  0.44675  1.0000
  C   C10       1.0  0.75360  0.72210  0.94675  1.0000
  C   C11       1.0  0.25360  0.77790  0.94675  1.0000
  C   C12       1.0  0.74640  0.22210  0.44675  1.0000
  H   H9        1.0  0.18740  0.32350  0.50540  1.0000
  H   H10       1.0  0.81260  0.67650  0.00540  1.0000
  H   H11       1.0  0.31260  0.82350  0.00540  1.0000
  H   H12       1.0  0.68740  0.17650  0.50540  1.0000
