data_image0
_chemical_formula_structural       Zn4O24C8H8C4H4
_chemical_formula_sum              "Zn4 O24 C12 H12"
_cell_length_a       8.301
_cell_length_b       11.6888
_cell_length_c       8.9533
_cell_angle_alpha    90
_cell_angle_beta     90
_cell_angle_gamma    90

_space_group_name_H-M_alt    "P 1"
_space_group_IT_number       1

loop_
  _space_group_symop_operation_xyz
  'x, y, z'

loop_
  _atom_site_type_symbol
  _atom_site_label
  _atom_site_symmetry_multiplicity
  _atom_site_fract_x
  _atom_site_fract_y
  _atom_site_fract_z
  _atom_site_occupancy
  Zn  Zn1       1.0  0.25980  0.75000  0.25000  1.0000
  Zn  Zn2       1.0  0.24020  0.25000  0.25000  1.0000
  Zn  Zn3       1.0  0.74020  0.25000  0.75000  1.0000
  Zn  Zn4       1.0  0.75980  0.75000  0.75000  1.0000
  O   O1        1.0  0.40988  0.82046  0.41302  1.0000
  O   O2        1.0  0.09012  0.17954  0.41302  1.0000
  O   O3        1.0  0.09012  0.32046  0.08698  1.0000
  O   O4        1.0  0.40988  0.67954  0.08698  1.0000
  O   O5        1.0  0.59012  0.17954  0.58698  1.0000
  O   O6        1.0  0.90988  0.82046  0.58698  1.0000
  O   O7        1.0  0.90988  0.67954  0.91302  1.0000
  O   O8        1.0  0.59012  0.32046  0.91302  1.0000
  O   O9        1.0  0.56610  0.80830  0.61428  1.0000
  O   O10       1.0  0.93390  0.19170  0.61428  1.0000
  O   O11       1.0  0.93390  0.30830  0.88572  1.0000
  O   O12       1.0  0.56610  0.69170  0.88572  1.0000
  O   O13       1.0  0.43390  0.19170  0.38572  1.0000
  O   O14       1.0  0.06610  0.80830  0.38572  1.0000
  O   O15       1.0  0.06610  0.69170  0.11428  1.0000
  O   O16       1.0  0.43390  0.30830  0.11428  1.0000
  O   O17       1.0  0.26070  0.59500  0.36710  1.0000
  O   O18       1.0  0.23930  0.40500  0.36710  1.0000
  O   O19       1.0  0.23930  0.09500  0.13290  1.0000
  O   O20       1.0  0.26070  0.90500  0.13290  1.0000
  O   O21       1.0  0.73930  0.40500  0.63290  1.0000
  O   O22       1.0  0.76070  0.59500  0.63290  1.0000
  O   O23       1.0  0.76070  0.90500  0.86710  1.0000
  O   O24       1.0  0.73930  0.09500  0.86710  1.0000
  C   C1        1.0  0.52740  0.77928  0.48383  1.0000
  C   C2        1.0  0.97260  0.22072  0.48383  1.0000
  C   C3        1.0  0.97260  0.27928  0.01617  1.0000
  C   C4        1.0  0.52740  0.72072  0.01617  1.0000
  C   C5        1.0  0.47260  0.22072  0.51617  1.0000
  C   C6        1.0  0.02740  0.77928  0.51617  1.0000
  C   C7        1.0  0.02740  0.72072  0.98383  1.0000
  C   C8        1.0  0.47260  0.27928  0.98383  1.0000
  H   H1        1.0  0.58960  0.72380  0.43670  1.0000
  H   H2        1.0  0.91040  0.27620  0.43670  1.0000
  H   H3        1.0  0.91040  0.22380  0.06330  1.0000
  H   H4        1.0  0.58960  0.77620  0.06330  1.0000
  H   H5        1.0  0.41040  0.27620  0.56330  1.0000
  H   H6        1.0  0.08960  0.72380  0.56330  1.0000
  H   H7        1.0  0.08960  0.77620  0.93670  1.0000
  H   H8        1.0  0.41040  0.22380  0.93670  1.0000
  C   C9        1.0  0.25000  0.50000  0.30230  1.0000
  C   C10       1.0  0.25000  0.00000  0.19770  1.0000
  C   C11       1.0  0.75000  0.50000  0.69770  1.0000
  C   C12       1.0  0.75000  0.00000  0.80230  1.0000
  H   H9        1.0  0.25000  0.50000  0.19840  1.0000
  H   H10       1.0  0.25000  0.00000  0.30160  1.0000
  H   H11       1.0  0.75000  0.50000  0.80160  1.0000
  H   H12       1.0  0.75000  0.00000  0.69840  1.0000
