data_image0
_chemical_formula_structural       Cu4O24C4H4C4H4C4H4
_chemical_formula_sum              "Cu4 O24 C12 H12"
_cell_length_a       8.4756
_cell_length_b       9.044
_cell_length_c       11.3197
_cell_angle_alpha    90
_cell_angle_beta     90
_cell_angle_gamma    90

_space_group_name_H-M_alt    "P 1"
_space_group_IT_number       1

loop_
  _space_group_symop_operation_xyz
  'x, y, z'

loop_
  _atom_site_type_symbol
  _atom_site_label
  _atom_site_symmetry_multiplicity
  _atom_site_fract_x
  _atom_site_fract_y
  _atom_site_fract_z
  _atom_site_occupancy
  Cu  Cu1       1.0  0.99227  0.99911  0.47616  1.0000
  Cu  Cu2       1.0  0.00773  0.00089  0.97616  1.0000
  Cu  Cu3       1.0  0.50773  0.49911  0.97616  1.0000
  Cu  Cu4       1.0  0.49227  0.50089  0.47616  1.0000
  O   O1        1.0  0.99723  0.88720  0.32363  1.0000
  O   O2        1.0  0.00277  0.11280  0.82363  1.0000
  O   O3        1.0  0.50277  0.38720  0.82363  1.0000
  O   O4        1.0  0.49723  0.61280  0.32363  1.0000
  O   O5        1.0  0.20552  0.15100  0.41531  1.0000
  O   O6        1.0  0.79448  0.84900  0.91531  1.0000
  O   O7        1.0  0.29448  0.65100  0.91531  1.0000
  O   O8        1.0  0.70552  0.34900  0.41531  1.0000
  O   O9        1.0  0.01515  0.88894  0.12809  1.0000
  O   O10       1.0  0.98485  0.11106  0.62809  1.0000
  O   O11       1.0  0.48485  0.38894  0.62809  1.0000
  O   O12       1.0  0.51515  0.61106  0.12809  1.0000
  O   O13       1.0  0.35922  0.34922  0.40285  1.0000
  O   O14       1.0  0.64078  0.65078  0.90285  1.0000
  O   O15       1.0  0.14078  0.84922  0.90285  1.0000
  O   O16       1.0  0.85922  0.15078  0.40285  1.0000
  O   O17       1.0  0.16633  0.87800  0.53956  1.0000
  O   O18       1.0  0.83367  0.12200  0.03956  1.0000
  O   O19       1.0  0.33367  0.37800  0.03956  1.0000
  O   O20       1.0  0.66633  0.62200  0.53956  1.0000
  O   O21       1.0  0.31985  0.67927  0.55233  1.0000
  O   O22       1.0  0.68015  0.32073  0.05233  1.0000
  O   O23       1.0  0.18015  0.17927  0.05233  1.0000
  O   O24       1.0  0.81985  0.82073  0.55233  1.0000
  C   C1        1.0  0.20180  0.74450  0.51372  1.0000
  C   C2        1.0  0.79820  0.25550  0.01372  1.0000
  C   C3        1.0  0.29820  0.24450  0.01372  1.0000
  C   C4        1.0  0.70180  0.75550  0.51372  1.0000
  H   H1        1.0  0.13510  0.69320  0.46300  1.0000
  H   H2        1.0  0.86490  0.30680  0.96300  1.0000
  H   H3        1.0  0.36490  0.19320  0.96300  1.0000
  H   H4        1.0  0.63510  0.80680  0.46300  1.0000
  C   C5        1.0  0.00890  0.95382  0.22600  1.0000
  C   C6        1.0  0.99110  0.04618  0.72600  1.0000
  C   C7        1.0  0.49110  0.45382  0.72600  1.0000
  C   C8        1.0  0.50890  0.54618  0.22600  1.0000
  H   H5        1.0  0.01300  0.05660  0.22670  1.0000
  H   H6        1.0  0.98700  0.94340  0.72670  1.0000
  H   H7        1.0  0.48700  0.55660  0.72670  1.0000
  H   H8        1.0  0.51300  0.44340  0.22670  1.0000
  C   C9        1.0  0.24430  0.27760  0.44682  1.0000
  C   C10       1.0  0.75570  0.72240  0.94682  1.0000
  C   C11       1.0  0.25570  0.77760  0.94682  1.0000
  C   C12       1.0  0.74430  0.22240  0.44682  1.0000
  H   H9        1.0  0.18560  0.32260  0.50620  1.0000
  H   H10       1.0  0.81440  0.67740  0.00620  1.0000
  H   H11       1.0  0.31440  0.82260  0.00620  1.0000
  H   H12       1.0  0.68560  0.17740  0.50620  1.0000
