data_image0
_chemical_formula_structural       Au2C8H4C2H6C4H4C2H6C4H4C2H6C4H4C2H6N4O24Rh4
_chemical_formula_sum              "Au2 C28 H40 N4 O24 Rh4"
_cell_length_a       12.9715
_cell_length_b       13.806
_cell_length_c       15.99
_cell_angle_alpha    79.123
_cell_angle_beta     86.132
_cell_angle_gamma    71.808

_space_group_name_H-M_alt    "P 1"
_space_group_IT_number       1

loop_
  _space_group_symop_operation_xyz
  'x, y, z'

loop_
  _atom_site_type_symbol
  _atom_site_label
  _atom_site_symmetry_multiplicity
  _atom_site_fract_x
  _atom_site_fract_y
  _atom_site_fract_z
  _atom_site_occupancy
  Au  Au1       1.0  0.88661  0.76430  0.24678  1.0000
  Au  Au2       1.0  0.11339  0.23570  0.75322  1.0000
  C   C1        1.0  0.03820  0.75470  0.26430  1.0000
  C   C2        1.0  0.96180  0.24530  0.73570  1.0000
  C   C3        1.0  0.73400  0.77520  0.22790  1.0000
  C   C4        1.0  0.26600  0.22480  0.77210  1.0000
  C   C5        1.0  0.36540  0.83620  0.38310  1.0000
  C   C6        1.0  0.63460  0.16380  0.61690  1.0000
  C   C7        1.0  0.35450  0.88800  0.46220  1.0000
  C   C8        1.0  0.64550  0.11200  0.53780  1.0000
  H   H1        1.0  0.40540  0.84190  0.50490  1.0000
  H   H2        1.0  0.59460  0.15810  0.49510  1.0000
  H   H3        1.0  0.37450  0.95110  0.44630  1.0000
  H   H4        1.0  0.62550  0.04890  0.55370  1.0000
  C   C9        1.0  0.23900  0.82300  0.54700  1.0000
  C   C10       1.0  0.76100  0.17700  0.45300  1.0000
  H   H5        1.0  0.19340  0.79700  0.51740  1.0000
  H   H6        1.0  0.80660  0.20300  0.48260  1.0000
  H   H7        1.0  0.20430  0.83910  0.59980  1.0000
  H   H8        1.0  0.79570  0.16090  0.40020  1.0000
  H   H9        1.0  0.30760  0.77030  0.55840  1.0000
  H   H10       1.0  0.69240  0.22970  0.44160  1.0000
  C   C11       1.0  0.41370  0.67650  0.10750  1.0000
  C   C12       1.0  0.58630  0.32350  0.89250  1.0000
  C   C13       1.0  0.42470  0.62370  0.03120  1.0000
  C   C14       1.0  0.57530  0.37630  0.96880  1.0000
  H   H11       1.0  0.42790  0.55190  0.05080  1.0000
  H   H12       1.0  0.57210  0.44810  0.94920  1.0000
  H   H13       1.0  0.36080  0.65670  0.99610  1.0000
  H   H14       1.0  0.63920  0.34330  0.00390  1.0000
  C   C15       1.0  0.50690  0.72080  0.92820  1.0000
  C   C16       1.0  0.49310  0.27920  0.07180  1.0000
  H   H15       1.0  0.44480  0.73750  0.89260  1.0000
  H   H16       1.0  0.55520  0.26250  0.10740  1.0000
  H   H17       1.0  0.57070  0.71670  0.89330  1.0000
  H   H18       1.0  0.42930  0.28330  0.10670  1.0000
  H   H19       1.0  0.49690  0.77360  0.96200  1.0000
  H   H20       1.0  0.50310  0.22640  0.03800  1.0000
  C   C17       1.0  0.46890  0.57110  0.33070  1.0000
  C   C18       1.0  0.53110  0.42890  0.66930  1.0000
  C   C19       1.0  0.51900  0.46080  0.37890  1.0000
  C   C20       1.0  0.48100  0.53920  0.62110  1.0000
  H   H21       1.0  0.59090  0.43240  0.35570  1.0000
  H   H22       1.0  0.40910  0.56760  0.64430  1.0000
  H   H23       1.0  0.52730  0.46380  0.43810  1.0000
  H   H24       1.0  0.47270  0.53620  0.56190  1.0000
  C   C21       1.0  0.46110  0.37020  0.29310  1.0000
  C   C22       1.0  0.53890  0.62980  0.70690  1.0000
  H   H25       1.0  0.41670  0.42940  0.25600  1.0000
  H   H26       1.0  0.58330  0.57060  0.74400  1.0000
  H   H27       1.0  0.43410  0.31250  0.29510  1.0000
  H   H28       1.0  0.56590  0.68750  0.70490  1.0000
  H   H29       1.0  0.53450  0.35300  0.27200  1.0000
  H   H30       1.0  0.46550  0.64700  0.72800  1.0000
  C   C23       1.0  0.30970  0.94290  0.15620  1.0000
  C   C24       1.0  0.69030  0.05710  0.84380  1.0000
  C   C25       1.0  0.25610  0.05350  0.11110  1.0000
  C   C26       1.0  0.74390  0.94650  0.88890  1.0000
  H   H31       1.0  0.20710  0.05220  0.06840  1.0000
  H   H32       1.0  0.79290  0.94780  0.93160  1.0000
  H   H33       1.0  0.21310  0.09320  0.15220  1.0000
  H   H34       1.0  0.78690  0.90680  0.84780  1.0000
  C   C27       1.0  0.34870  0.09100  0.98870  1.0000
  C   C28       1.0  0.65130  0.90900  0.01130  1.0000
  H   H35       1.0  0.36910  0.01890  0.98590  1.0000
  H   H36       1.0  0.63090  0.98110  0.01410  1.0000
  H   H37       1.0  0.40610  0.11870  0.96530  1.0000
  H   H38       1.0  0.59390  0.88130  0.03470  1.0000
  H   H39       1.0  0.28370  0.12730  0.95660  1.0000
  H   H40       1.0  0.71630  0.87270  0.04340  1.0000
  N   N1        1.0  0.12960  0.74560  0.27040  1.0000
  N   N2        1.0  0.87040  0.25440  0.72960  1.0000
  N   N3        1.0  0.64400  0.77700  0.22260  1.0000
  N   N4        1.0  0.35600  0.22300  0.77740  1.0000
  O   O1        1.0  0.45590  0.82640  0.34350  1.0000
  O   O2        1.0  0.54410  0.17360  0.65650  1.0000
  O   O3        1.0  0.49080  0.70430  0.12700  1.0000
  O   O4        1.0  0.50920  0.29570  0.87300  1.0000
  O   O5        1.0  0.53560  0.62000  0.30310  1.0000
  O   O6        1.0  0.46440  0.38000  0.69690  1.0000
  O   O7        1.0  0.41070  0.90980  0.16550  1.0000
  O   O8        1.0  0.58930  0.09020  0.83450  1.0000
  O   O9        1.0  0.24330  0.89440  0.18360  1.0000
  O   O10       1.0  0.75670  0.10560  0.81640  1.0000
  O   O11       1.0  0.28610  0.81350  0.36130  1.0000
  O   O12       1.0  0.71390  0.18650  0.63870  1.0000
  O   O13       1.0  0.32340  0.68680  0.14700  1.0000
  O   O14       1.0  0.67660  0.31320  0.85300  1.0000
  O   O15       1.0  0.36780  0.60480  0.32260  1.0000
  O   O16       1.0  0.63220  0.39520  0.67740  1.0000
  O   O17       1.0  0.51860  0.62720  0.98080  1.0000
  O   O18       1.0  0.48140  0.37280  0.01920  1.0000
  O   O19       1.0  0.25420  0.91120  0.49680  1.0000
  O   O20       1.0  0.74580  0.08880  0.50320  1.0000
  O   O21       1.0  0.45840  0.39320  0.37540  1.0000
  O   O22       1.0  0.54160  0.60680  0.62460  1.0000
  O   O23       1.0  0.33050  0.10410  0.07140  1.0000
  O   O24       1.0  0.66950  0.89590  0.92860  1.0000
  Rh  Rh1       1.0  0.47887  0.76605  0.23462  1.0000
  Rh  Rh2       1.0  0.52113  0.23395  0.76538  1.0000
  Rh  Rh3       1.0  0.29878  0.74999  0.25502  1.0000
  Rh  Rh4       1.0  0.70122  0.25001  0.74498  1.0000
