data_image0
_chemical_formula_structural       Au4N4C12H8C4H8C4H12C8H8C4H8C4H12C8H8C4H8C4H12C8H8C4H8C4H12C4O32N4O16Rh8
_chemical_formula_sum              "Au4 N8 C72 H112 O48 Rh8"
_cell_length_a       13.18
_cell_length_b       22.27
_cell_length_c       16.901
_cell_angle_alpha    90
_cell_angle_beta     112.224
_cell_angle_gamma    90

_space_group_name_H-M_alt    "P 1"
_space_group_IT_number       1

loop_
  _space_group_symop_operation_xyz
  'x, y, z'

loop_
  _atom_site_type_symbol
  _atom_site_label
  _atom_site_symmetry_multiplicity
  _atom_site_fract_x
  _atom_site_fract_y
  _atom_site_fract_z
  _atom_site_occupancy
  Au  Au1       1.0  0.00050  0.24620  0.16180  1.0000
  Au  Au2       1.0  0.99950  0.74620  0.33820  1.0000
  Au  Au3       1.0  0.99950  0.75380  0.83820  1.0000
  Au  Au4       1.0  0.00050  0.25380  0.66180  1.0000
  N   N1        1.0  0.76800  0.19740  0.05270  1.0000
  N   N2        1.0  0.23200  0.69740  0.44730  1.0000
  N   N3        1.0  0.23200  0.80260  0.94730  1.0000
  N   N4        1.0  0.76800  0.30260  0.55270  1.0000
  C   C1        1.0  0.14630  0.28020  0.23230  1.0000
  C   C2        1.0  0.85370  0.78020  0.26770  1.0000
  C   C3        1.0  0.85370  0.71980  0.76770  1.0000
  C   C4        1.0  0.14630  0.21980  0.73230  1.0000
  C   C5        1.0  0.54340  0.11110  0.82490  1.0000
  C   C6        1.0  0.45660  0.61110  0.67510  1.0000
  C   C7        1.0  0.45660  0.88890  0.17510  1.0000
  C   C8        1.0  0.54340  0.38890  0.32490  1.0000
  C   C9        1.0  0.57780  0.06730  0.77150  1.0000
  C   C10       1.0  0.42220  0.56730  0.72850  1.0000
  C   C11       1.0  0.42220  0.93270  0.22850  1.0000
  C   C12       1.0  0.57780  0.43270  0.27150  1.0000
  H   H1        1.0  0.62870  0.08710  0.75090  1.0000
  H   H2        1.0  0.37130  0.58710  0.74910  1.0000
  H   H3        1.0  0.37130  0.91290  0.24910  1.0000
  H   H4        1.0  0.62870  0.41290  0.25090  1.0000
  H   H5        1.0  0.61610  0.03400  0.80730  1.0000
  H   H6        1.0  0.38390  0.53400  0.69270  1.0000
  H   H7        1.0  0.38390  0.96600  0.19270  1.0000
  H   H8        1.0  0.61610  0.46600  0.30730  1.0000
  C   C13       1.0  0.52480  0.00570  0.65130  1.0000
  C   C14       1.0  0.47520  0.50570  0.84870  1.0000
  C   C15       1.0  0.47520  0.99430  0.34870  1.0000
  C   C16       1.0  0.52480  0.49430  0.15130  1.0000
  H   H9        1.0  0.57470  0.02640  0.63080  1.0000
  H   H10       1.0  0.42530  0.52640  0.86920  1.0000
  H   H11       1.0  0.42530  0.97360  0.36920  1.0000
  H   H12       1.0  0.57470  0.47360  0.13080  1.0000
  H   H13       1.0  0.56340  0.97180  0.68550  1.0000
  H   H14       1.0  0.43660  0.47180  0.81450  1.0000
  H   H15       1.0  0.43660  0.02820  0.31450  1.0000
  H   H16       1.0  0.56340  0.52820  0.18550  1.0000
  C   C17       1.0  0.43330  0.98470  0.58070  1.0000
  C   C18       1.0  0.56670  0.48470  0.91930  1.0000
  C   C19       1.0  0.56670  0.01530  0.41930  1.0000
  C   C20       1.0  0.43330  0.51530  0.08070  1.0000
  H   H17       1.0  0.40140  0.95090  0.59800  1.0000
  H   H18       1.0  0.59860  0.45090  0.90200  1.0000
  H   H19       1.0  0.59860  0.04910  0.40200  1.0000
  H   H20       1.0  0.40140  0.54910  0.09800  1.0000
  H   H21       1.0  0.45650  0.97280  0.53560  1.0000
  H   H22       1.0  0.54350  0.47280  0.96440  1.0000
  H   H23       1.0  0.54350  0.02720  0.46440  1.0000
  H   H24       1.0  0.45650  0.52720  0.03560  1.0000
  H   H25       1.0  0.37980  0.01620  0.56070  1.0000
  H   H26       1.0  0.62020  0.51620  0.93930  1.0000
  H   H27       1.0  0.62020  0.98380  0.43930  1.0000
  H   H28       1.0  0.37980  0.48380  0.06070  1.0000
  C   C21       1.0  0.45060  0.27710  0.00430  1.0000
  C   C22       1.0  0.54940  0.77710  0.49570  1.0000
  C   C23       1.0  0.54940  0.72290  0.99570  1.0000
  C   C24       1.0  0.45060  0.22290  0.50430  1.0000
  C   C25       1.0  0.43020  0.32740  0.05630  1.0000
  C   C26       1.0  0.56980  0.82740  0.44370  1.0000
  C   C27       1.0  0.56980  0.67260  0.94370  1.0000
  C   C28       1.0  0.43020  0.17260  0.55630  1.0000
  H   H29       1.0  0.44670  0.31290  0.11400  1.0000
  H   H30       1.0  0.55330  0.81290  0.38600  1.0000
  H   H31       1.0  0.55330  0.68710  0.88600  1.0000
  H   H32       1.0  0.44670  0.18710  0.61400  1.0000
  H   H33       1.0  0.48100  0.35980  0.05980  1.0000
  H   H34       1.0  0.51900  0.85980  0.44020  1.0000
  H   H35       1.0  0.51900  0.64020  0.94020  1.0000
  H   H36       1.0  0.48100  0.14020  0.55980  1.0000
  C   C29       1.0  0.25230  0.31850  0.05420  1.0000
  C   C30       1.0  0.74770  0.81850  0.44580  1.0000
  C   C31       1.0  0.74770  0.68150  0.94580  1.0000
  C   C32       1.0  0.25230  0.18150  0.55420  1.0000
  H   H37       1.0  0.27870  0.31980  0.11610  1.0000
  H   H38       1.0  0.72130  0.81980  0.38390  1.0000
  H   H39       1.0  0.72130  0.68020  0.88390  1.0000
  H   H40       1.0  0.27870  0.18020  0.61610  1.0000
  H   H41       1.0  0.24850  0.27680  0.03650  1.0000
  H   H42       1.0  0.75150  0.77680  0.46350  1.0000
  H   H43       1.0  0.75150  0.72320  0.96350  1.0000
  H   H44       1.0  0.24850  0.22320  0.53650  1.0000
  C   C33       1.0  0.14090  0.34710  0.01590  1.0000
  C   C34       1.0  0.85910  0.84710  0.48410  1.0000
  C   C35       1.0  0.85910  0.65290  0.98410  1.0000
  C   C36       1.0  0.14090  0.15290  0.51590  1.0000
  H   H45       1.0  0.14610  0.38870  0.03190  1.0000
  H   H46       1.0  0.85390  0.88870  0.46810  1.0000
  H   H47       1.0  0.85390  0.61130  0.96810  1.0000
  H   H48       1.0  0.14610  0.11130  0.53190  1.0000
  H   H49       1.0  0.09140  0.32700  0.03660  1.0000
  H   H50       1.0  0.90860  0.82700  0.46340  1.0000
  H   H51       1.0  0.90860  0.67300  0.96340  1.0000
  H   H52       1.0  0.09140  0.17300  0.53660  1.0000
  H   H53       1.0  0.11410  0.34390  0.95470  1.0000
  H   H54       1.0  0.88590  0.84390  0.54530  1.0000
  H   H55       1.0  0.88590  0.65610  0.04530  1.0000
  H   H56       1.0  0.11410  0.15610  0.45470  1.0000
  C   C37       1.0  0.45170  0.11420  0.01030  1.0000
  C   C38       1.0  0.54830  0.61420  0.48970  1.0000
  C   C39       1.0  0.54830  0.88580  0.98970  1.0000
  C   C40       1.0  0.45170  0.38580  0.51030  1.0000
  C   C41       1.0  0.42970  0.06950  0.07160  1.0000
  C   C42       1.0  0.57030  0.56950  0.42840  1.0000
  C   C43       1.0  0.57030  0.93050  0.92840  1.0000
  C   C44       1.0  0.42970  0.43050  0.57160  1.0000
  H   H57       1.0  0.47570  0.03450  0.07680  1.0000
  H   H58       1.0  0.52430  0.53450  0.42320  1.0000
  H   H59       1.0  0.52430  0.96550  0.92320  1.0000
  H   H60       1.0  0.47570  0.46550  0.57680  1.0000
  H   H61       1.0  0.45300  0.08800  0.12760  1.0000
  H   H62       1.0  0.54700  0.58800  0.37240  1.0000
  H   H63       1.0  0.54700  0.91200  0.87240  1.0000
  H   H64       1.0  0.45300  0.41200  0.62760  1.0000
  C   C45       1.0  0.29460  0.00370  0.98910  1.0000
  C   C46       1.0  0.70540  0.50370  0.51090  1.0000
  C   C47       1.0  0.70540  0.99630  0.01090  1.0000
  C   C48       1.0  0.29460  0.49630  0.48910  1.0000
  H   H65       1.0  0.35230  0.97370  0.00400  1.0000
  H   H66       1.0  0.64770  0.47370  0.49600  1.0000
  H   H67       1.0  0.64770  0.02630  0.99600  1.0000
  H   H68       1.0  0.35230  0.52630  0.50400  1.0000
  H   H69       1.0  0.28360  0.01950  0.93300  1.0000
  H   H70       1.0  0.71640  0.51950  0.56700  1.0000
  H   H71       1.0  0.71640  0.98050  0.06700  1.0000
  H   H72       1.0  0.28360  0.48050  0.43300  1.0000
  C   C49       1.0  0.19110  0.97640  0.98880  1.0000
  C   C50       1.0  0.80890  0.47640  0.51120  1.0000
  C   C51       1.0  0.80890  0.02360  0.01120  1.0000
  C   C52       1.0  0.19110  0.52360  0.48880  1.0000
  H   H73       1.0  0.19880  0.96760  0.04640  1.0000
  H   H74       1.0  0.80120  0.46760  0.45360  1.0000
  H   H75       1.0  0.80120  0.03240  0.95360  1.0000
  H   H76       1.0  0.19880  0.53240  0.54640  1.0000
  H   H77       1.0  0.17610  0.94000  0.95590  1.0000
  H   H78       1.0  0.82390  0.44000  0.54410  1.0000
  H   H79       1.0  0.82390  0.06000  0.04410  1.0000
  H   H80       1.0  0.17610  0.56000  0.45590  1.0000
  H   H81       1.0  0.13160  0.00400  0.96380  1.0000
  H   H82       1.0  0.86840  0.50400  0.53620  1.0000
  H   H83       1.0  0.86840  0.99600  0.03620  1.0000
  H   H84       1.0  0.13160  0.49600  0.46380  1.0000
  C   C53       1.0  0.54230  0.26980  0.81770  1.0000
  C   C54       1.0  0.45770  0.76980  0.68230  1.0000
  C   C55       1.0  0.45770  0.73020  0.18230  1.0000
  C   C56       1.0  0.54230  0.23020  0.31770  1.0000
  C   C57       1.0  0.56900  0.30960  0.75610  1.0000
  C   C58       1.0  0.43100  0.80960  0.74390  1.0000
  C   C59       1.0  0.43100  0.69040  0.24390  1.0000
  C   C60       1.0  0.56900  0.19040  0.25610  1.0000
  H   H85       1.0  0.54190  0.29060  0.70030  1.0000
  H   H86       1.0  0.45810  0.79060  0.79970  1.0000
  H   H87       1.0  0.45810  0.70940  0.29970  1.0000
  H   H88       1.0  0.54190  0.20940  0.20030  1.0000
  H   H89       1.0  0.53060  0.34740  0.75100  1.0000
  H   H90       1.0  0.46940  0.84740  0.74900  1.0000
  H   H91       1.0  0.46940  0.65260  0.24900  1.0000
  H   H92       1.0  0.53060  0.15260  0.25100  1.0000
  C   C61       1.0  0.74160  0.27120  0.76540  1.0000
  C   C62       1.0  0.25840  0.77120  0.73460  1.0000
  C   C63       1.0  0.25840  0.72880  0.23460  1.0000
  C   C64       1.0  0.74160  0.22880  0.26540  1.0000
  H   H93       1.0  0.72570  0.26680  0.70480  1.0000
  H   H94       1.0  0.27430  0.76680  0.79520  1.0000
  H   H95       1.0  0.27430  0.73320  0.29520  1.0000
  H   H96       1.0  0.72570  0.23320  0.20480  1.0000
  H   H97       1.0  0.72190  0.23420  0.78620  1.0000
  H   H98       1.0  0.27810  0.73420  0.71380  1.0000
  H   H99       1.0  0.27810  0.76580  0.21380  1.0000
  H   H100      1.0  0.72190  0.26580  0.28620  1.0000
  C   C65       1.0  0.85970  0.28390  0.81160  1.0000
  C   C66       1.0  0.14030  0.78390  0.68840  1.0000
  C   C67       1.0  0.14030  0.71610  0.18840  1.0000
  C   C68       1.0  0.85970  0.21610  0.31160  1.0000
  H   H101      1.0  0.88360  0.31270  0.78020  1.0000
  H   H102      1.0  0.11640  0.81270  0.71980  1.0000
  H   H103      1.0  0.11640  0.68730  0.21980  1.0000
  H   H104      1.0  0.88360  0.18730  0.28020  1.0000
  H   H105      1.0  0.90080  0.24740  0.81750  1.0000
  H   H106      1.0  0.09920  0.74740  0.68250  1.0000
  H   H107      1.0  0.09920  0.75260  0.18250  1.0000
  H   H108      1.0  0.90080  0.25260  0.31750  1.0000
  H   H109      1.0  0.87140  0.29960  0.86730  1.0000
  H   H110      1.0  0.12860  0.79960  0.63270  1.0000
  H   H111      1.0  0.12860  0.70040  0.13270  1.0000
  H   H112      1.0  0.87140  0.20040  0.36730  1.0000
  C   C69       1.0  0.85420  0.21290  0.09140  1.0000
  C   C70       1.0  0.14580  0.71290  0.40860  1.0000
  C   C71       1.0  0.14580  0.78710  0.90860  1.0000
  C   C72       1.0  0.85420  0.28710  0.59140  1.0000
  O   O1        1.0  0.62200  0.12950  0.88990  1.0000
  O   O2        1.0  0.37800  0.62950  0.61010  1.0000
  O   O3        1.0  0.37800  0.87050  0.11010  1.0000
  O   O4        1.0  0.62200  0.37050  0.38990  1.0000
  O   O5        1.0  0.44390  0.12630  0.79920  1.0000
  O   O6        1.0  0.55610  0.62630  0.70080  1.0000
  O   O7        1.0  0.55610  0.87370  0.20080  1.0000
  O   O8        1.0  0.44390  0.37370  0.29920  1.0000
  O   O9        1.0  0.54900  0.25760  0.03220  1.0000
  O   O10       1.0  0.45100  0.75760  0.46780  1.0000
  O   O11       1.0  0.45100  0.74240  0.96780  1.0000
  O   O12       1.0  0.54900  0.24240  0.53220  1.0000
  O   O13       1.0  0.37430  0.25970  0.93820  1.0000
  O   O14       1.0  0.62570  0.75970  0.56180  1.0000
  O   O15       1.0  0.62570  0.74030  0.06180  1.0000
  O   O16       1.0  0.37430  0.24030  0.43820  1.0000
  O   O17       1.0  0.55050  0.12980  0.03330  1.0000
  O   O18       1.0  0.44950  0.62980  0.46670  1.0000
  O   O19       1.0  0.44950  0.87020  0.96670  1.0000
  O   O20       1.0  0.55050  0.37020  0.53330  1.0000
  O   O21       1.0  0.37260  0.13090  0.94510  1.0000
  O   O22       1.0  0.62740  0.63090  0.55490  1.0000
  O   O23       1.0  0.62740  0.86910  0.05490  1.0000
  O   O24       1.0  0.37260  0.36910  0.44510  1.0000
  O   O25       1.0  0.61810  0.25640  0.88700  1.0000
  O   O26       1.0  0.38190  0.75640  0.61300  1.0000
  O   O27       1.0  0.38190  0.74360  0.11300  1.0000
  O   O28       1.0  0.61810  0.24360  0.38700  1.0000
  O   O29       1.0  0.44350  0.25280  0.79380  1.0000
  O   O30       1.0  0.55650  0.75280  0.70620  1.0000
  O   O31       1.0  0.55650  0.74720  0.20620  1.0000
  O   O32       1.0  0.44350  0.24720  0.29380  1.0000
  N   N5        1.0  0.22760  0.29890  0.27500  1.0000
  N   N6        1.0  0.77240  0.79890  0.22500  1.0000
  N   N7        1.0  0.77240  0.70110  0.72500  1.0000
  N   N8        1.0  0.22760  0.20110  0.77500  1.0000
  O   O33       1.0  0.49140  0.04530  0.70280  1.0000
  O   O34       1.0  0.50860  0.54530  0.79720  1.0000
  O   O35       1.0  0.50860  0.95470  0.29720  1.0000
  O   O36       1.0  0.49140  0.45470  0.20280  1.0000
  O   O37       1.0  0.32420  0.35080  0.02520  1.0000
  O   O38       1.0  0.67580  0.85080  0.47480  1.0000
  O   O39       1.0  0.67580  0.64920  0.97480  1.0000
  O   O40       1.0  0.32420  0.14920  0.52520  1.0000
  O   O41       1.0  0.32360  0.05010  0.04990  1.0000
  O   O42       1.0  0.67640  0.55010  0.45010  1.0000
  O   O43       1.0  0.67640  0.94990  0.95010  1.0000
  O   O44       1.0  0.32360  0.44990  0.54990  1.0000
  O   O45       1.0  0.67890  0.32110  0.77960  1.0000
  O   O46       1.0  0.32110  0.82110  0.72040  1.0000
  O   O47       1.0  0.32110  0.67890  0.22040  1.0000
  O   O48       1.0  0.67890  0.17890  0.27960  1.0000
  Rh  Rh1       1.0  0.59083  0.19313  0.96411  1.0000
  Rh  Rh2       1.0  0.40917  0.69313  0.53589  1.0000
  Rh  Rh3       1.0  0.40917  0.80687  0.03589  1.0000
  Rh  Rh4       1.0  0.59083  0.30687  0.46411  1.0000
  Rh  Rh5       1.0  0.40178  0.19263  0.86637  1.0000
  Rh  Rh6       1.0  0.59822  0.69263  0.63363  1.0000
  Rh  Rh7       1.0  0.59822  0.80737  0.13363  1.0000
  Rh  Rh8       1.0  0.40178  0.30737  0.36637  1.0000
