data_image0
_chemical_formula_structural       Cd3O4C2O2C2H2O8C2H2C2H2C2O4C8H2C8H2C4H2C2N2H2C2
_chemical_formula_sum              "Cd3 O18 C34 H14 N2"
_cell_length_a       9.951
_cell_length_b       10.319
_cell_length_c       12.614
_cell_angle_alpha    68.753
_cell_angle_beta     73.032
_cell_angle_gamma    83.923

_space_group_name_H-M_alt    "P 1"
_space_group_IT_number       1

loop_
  _space_group_symop_operation_xyz
  'x, y, z'

loop_
  _atom_site_type_symbol
  _atom_site_label
  _atom_site_symmetry_multiplicity
  _atom_site_fract_x
  _atom_site_fract_y
  _atom_site_fract_z
  _atom_site_occupancy
  Cd  Cd1       1.0  0.50000  0.00000  0.00000  1.0000
  Cd  Cd2       1.0  0.52561  0.30213  0.75472  1.0000
  Cd  Cd3       1.0  0.47439  0.69787  0.24528  1.0000
  O   O1        1.0  0.79790  0.31590  0.75140  1.0000
  O   O2        1.0  0.20210  0.68410  0.24860  1.0000
  O   O3        1.0  0.32380  0.15770  0.96990  1.0000
  O   O4        1.0  0.67620  0.84230  0.03010  1.0000
  C   C1        1.0  0.09100  0.18430  0.95290  1.0000
  C   C2        1.0  0.90900  0.81570  0.04710  1.0000
  O   O5        1.0  0.29370  0.25570  0.79080  1.0000
  O   O6        1.0  0.70630  0.74430  0.20920  1.0000
  C   C3        1.0  0.99930  0.22380  0.88150  1.0000
  C   C4        1.0  0.00070  0.77620  0.11850  1.0000
  H   H1        1.0  0.03437  0.26366  0.79990  1.0000
  H   H2        1.0  0.96563  0.73634  0.20010  1.0000
  O   O7        1.0  0.52590  0.97250  0.82180  1.0000
  O   O8        1.0  0.47410  0.02750  0.17820  1.0000
  O   O9        1.0  0.49910  0.52290  0.76480  1.0000
  O   O10       1.0  0.50090  0.47710  0.23520  1.0000
  O   O11       1.0  0.59230  0.50280  0.59320  1.0000
  O   O12       1.0  0.40770  0.49720  0.40680  1.0000
  O   O13       1.0  0.62830  0.20290  0.90640  1.0000
  O   O14       1.0  0.37170  0.79710  0.09360  1.0000
  C   C5        1.0  0.66920  0.00140  0.51320  1.0000
  C   C6        1.0  0.33080  0.99860  0.48680  1.0000
  H   H3        1.0  0.69534  0.09460  0.48109  1.0000
  H   H4        1.0  0.30466  0.90540  0.51891  1.0000
  C   C7        1.0  0.80510  0.14500  0.05440  1.0000
  C   C8        1.0  0.19490  0.85500  0.94560  1.0000
  H   H5        1.0  0.70921  0.12931  0.08892  1.0000
  H   H6        1.0  0.29079  0.87069  0.91108  1.0000
  C   C9        1.0  0.75610  0.24330  0.85700  1.0000
  C   C10       1.0  0.24390  0.75670  0.14300  1.0000
  O   O15       1.0  0.92010  0.09870  0.31650  1.0000
  O   O16       1.0  0.07990  0.90130  0.68350  1.0000
  O   O17       1.0  0.60430  0.15870  0.65980  1.0000
  O   O18       1.0  0.39570  0.84130  0.34020  1.0000
  C   C11       1.0  0.85560  0.20360  0.93220  1.0000
  C   C12       1.0  0.14440  0.79640  0.06780  1.0000
  C   C13       1.0  0.60770  0.94250  0.63420  1.0000
  C   C14       1.0  0.39230  0.05750  0.36580  1.0000
  C   C15       1.0  0.59580  0.72750  0.60580  1.0000
  C   C16       1.0  0.40420  0.27250  0.39420  1.0000
  C   C17       1.0  0.57050  0.80400  0.68010  1.0000
  C   C18       1.0  0.42950  0.19600  0.31990  1.0000
  H   H7        1.0  0.52852  0.76212  0.76060  1.0000
  H   H8        1.0  0.47148  0.23788  0.23940  1.0000
  C   C19       1.0  0.57800  0.02960  0.71320  1.0000
  C   C20       1.0  0.42200  0.97040  0.28680  1.0000
  C   C21       1.0  0.85210  0.06120  0.25960  1.0000
  C   C22       1.0  0.14790  0.93880  0.74040  1.0000
  C   C23       1.0  0.89610  0.10980  0.12540  1.0000
  C   C24       1.0  0.10390  0.89020  0.87460  1.0000
  C   C25       1.0  0.03970  0.12990  0.07380  1.0000
  C   C26       1.0  0.96030  0.87010  0.92620  1.0000
  H   H9        1.0  0.10113  0.10643  0.12105  1.0000
  H   H10       1.0  0.89887  0.89357  0.87895  1.0000
  C   C27       1.0  0.55900  0.57560  0.65740  1.0000
  C   C28       1.0  0.44100  0.42440  0.34260  1.0000
  C   C29       1.0  0.65720  0.78610  0.48670  1.0000
  C   C30       1.0  0.34280  0.21390  0.51330  1.0000
  H   H11       1.0  0.67455  0.73220  0.43895  1.0000
  H   H12       1.0  0.32545  0.26780  0.56105  1.0000
  C   C31       1.0  0.24640  0.20030  0.90110  1.0000
  C   C32       1.0  0.75360  0.79970  0.09890  1.0000
  N   N1        1.0  0.74720  0.97730  0.30890  1.0000
  N   N2        1.0  0.25280  0.02270  0.69110  1.0000
  H   H13       1.0  0.70879  0.95275  0.26621  1.0000
  H   H14       1.0  0.29121  0.04725  0.73379  1.0000
  C   C33       1.0  0.69290  0.92320  0.43830  1.0000
  C   C34       1.0  0.30710  0.07680  0.56170  1.0000
