data_image0
_chemical_formula_structural       Cd10C8H4C4H4C8H4C4H4C12H4C4H4C8H4C4H4C16H4C4H4C8H4C4H4C8H4C4H4C8H4C4H4C12H4C4H4C8H4C4H4C12H4C4H4C8H4C4H4C4N8O52H8
_chemical_formula_sum              "Cd10 C168 H104 N8 O52"
_cell_length_a       14.583
_cell_length_b       23.241
_cell_length_c       15.6338
_cell_angle_alpha    90
_cell_angle_beta     106.99
_cell_angle_gamma    90

_space_group_name_H-M_alt    "P 1"
_space_group_IT_number       1

loop_
  _space_group_symop_operation_xyz
  'x, y, z'

loop_
  _atom_site_type_symbol
  _atom_site_label
  _atom_site_symmetry_multiplicity
  _atom_site_fract_x
  _atom_site_fract_y
  _atom_site_fract_z
  _atom_site_occupancy
  Cd  Cd1       1.0  0.00000  0.50000  0.50000  1.0000
  Cd  Cd2       1.0  0.00000  0.00000  0.00000  1.0000
  Cd  Cd3       1.0  0.23637  0.43763  0.58375  1.0000
  Cd  Cd4       1.0  0.76363  0.93763  0.91625  1.0000
  Cd  Cd5       1.0  0.76363  0.56237  0.41625  1.0000
  Cd  Cd6       1.0  0.23637  0.06237  0.08375  1.0000
  Cd  Cd7       1.0  0.25806  0.30106  0.69640  1.0000
  Cd  Cd8       1.0  0.74194  0.80106  0.80360  1.0000
  Cd  Cd9       1.0  0.74194  0.69894  0.30360  1.0000
  Cd  Cd10      1.0  0.25806  0.19894  0.19640  1.0000
  C   C1        1.0  0.15620  0.53600  0.13220  1.0000
  C   C2        1.0  0.84380  0.03600  0.36780  1.0000
  C   C3        1.0  0.84380  0.46400  0.86780  1.0000
  C   C4        1.0  0.15620  0.96400  0.63220  1.0000
  C   C5        1.0  0.23710  0.50890  0.18690  1.0000
  C   C6        1.0  0.76290  0.00890  0.31310  1.0000
  C   C7        1.0  0.76290  0.49110  0.81310  1.0000
  C   C8        1.0  0.23710  0.99110  0.68690  1.0000
  H   H1        1.0  0.29000  0.50200  0.16650  1.0000
  H   H2        1.0  0.71000  0.00200  0.33350  1.0000
  H   H3        1.0  0.71000  0.49800  0.83350  1.0000
  H   H4        1.0  0.29000  0.99800  0.66650  1.0000
  C   C9        1.0  0.23800  0.49210  0.27270  1.0000
  C   C10       1.0  0.76200  0.99210  0.22730  1.0000
  C   C11       1.0  0.76200  0.50790  0.72730  1.0000
  C   C12       1.0  0.23800  0.00790  0.77270  1.0000
  H   H5        1.0  0.29020  0.47130  0.30730  1.0000
  H   H6        1.0  0.70980  0.97130  0.19270  1.0000
  H   H7        1.0  0.70980  0.52870  0.69270  1.0000
  H   H8        1.0  0.29020  0.02870  0.80730  1.0000
  C   C13       1.0  0.16650  0.50480  0.30710  1.0000
  C   C14       1.0  0.83350  0.00480  0.19290  1.0000
  C   C15       1.0  0.83350  0.49520  0.69290  1.0000
  C   C16       1.0  0.16650  0.99520  0.80710  1.0000
  C   C17       1.0  0.08700  0.53330  0.25210  1.0000
  C   C18       1.0  0.91300  0.03330  0.24790  1.0000
  C   C19       1.0  0.91300  0.46670  0.74790  1.0000
  C   C20       1.0  0.08700  0.96670  0.75210  1.0000
  H   H9        1.0  0.03590  0.54250  0.27380  1.0000
  H   H10       1.0  0.96410  0.04250  0.22620  1.0000
  H   H11       1.0  0.96410  0.45750  0.72620  1.0000
  H   H12       1.0  0.03590  0.95750  0.77380  1.0000
  C   C21       1.0  0.08340  0.54780  0.16630  1.0000
  C   C22       1.0  0.91660  0.04780  0.33370  1.0000
  C   C23       1.0  0.91660  0.45220  0.83370  1.0000
  C   C24       1.0  0.08340  0.95220  0.66630  1.0000
  H   H13       1.0  0.02920  0.56640  0.13060  1.0000
  H   H14       1.0  0.97080  0.06640  0.36940  1.0000
  H   H15       1.0  0.97080  0.43360  0.86940  1.0000
  H   H16       1.0  0.02920  0.93360  0.63060  1.0000
  C   C25       1.0  0.16850  0.48790  0.39980  1.0000
  C   C26       1.0  0.83150  0.98790  0.10020  1.0000
  C   C27       1.0  0.83150  0.51210  0.60020  1.0000
  C   C28       1.0  0.16850  0.01210  0.89980  1.0000
  C   C29       1.0  0.18570  0.50760  0.99120  1.0000
  C   C30       1.0  0.81430  0.00760  0.50880  1.0000
  C   C31       1.0  0.81430  0.49240  0.00880  1.0000
  C   C32       1.0  0.18570  0.99240  0.49120  1.0000
  C   C33       1.0  0.22680  0.52430  0.92570  1.0000
  C   C34       1.0  0.77320  0.02430  0.57430  1.0000
  C   C35       1.0  0.77320  0.47570  0.07430  1.0000
  C   C36       1.0  0.22680  0.97570  0.42570  1.0000
  H   H17       1.0  0.23590  0.56320  0.91690  1.0000
  H   H18       1.0  0.76410  0.06320  0.58310  1.0000
  H   H19       1.0  0.76410  0.43680  0.08310  1.0000
  H   H20       1.0  0.23590  0.93680  0.41690  1.0000
  C   C37       1.0  0.25390  0.48470  0.87440  1.0000
  C   C38       1.0  0.74610  0.98470  0.62560  1.0000
  C   C39       1.0  0.74610  0.51530  0.12560  1.0000
  C   C40       1.0  0.25390  0.01530  0.37440  1.0000
  H   H21       1.0  0.28100  0.49690  0.83060  1.0000
  H   H22       1.0  0.71900  0.99690  0.66940  1.0000
  H   H23       1.0  0.71900  0.50310  0.16940  1.0000
  H   H24       1.0  0.28100  0.00310  0.33060  1.0000
  C   C41       1.0  0.24170  0.42630  0.88600  1.0000
  C   C42       1.0  0.75830  0.92630  0.61400  1.0000
  C   C43       1.0  0.75830  0.57370  0.11400  1.0000
  C   C44       1.0  0.24170  0.07370  0.38600  1.0000
  C   C45       1.0  0.20180  0.41090  0.94920  1.0000
  C   C46       1.0  0.79820  0.91090  0.55080  1.0000
  C   C47       1.0  0.79820  0.58910  0.05080  1.0000
  C   C48       1.0  0.20180  0.08910  0.44920  1.0000
  H   H25       1.0  0.19450  0.37190  0.95860  1.0000
  H   H26       1.0  0.80550  0.87190  0.54140  1.0000
  H   H27       1.0  0.80550  0.62810  0.04140  1.0000
  H   H28       1.0  0.19450  0.12810  0.45860  1.0000
  C   C49       1.0  0.17050  0.45000  0.00180  1.0000
  C   C50       1.0  0.82950  0.95000  0.49820  1.0000
  C   C51       1.0  0.82950  0.55000  0.99820  1.0000
  C   C52       1.0  0.17050  0.05000  0.50180  1.0000
  H   H29       1.0  0.14010  0.43760  0.04310  1.0000
  H   H30       1.0  0.85990  0.93760  0.45690  1.0000
  H   H31       1.0  0.85990  0.56240  0.95690  1.0000
  H   H32       1.0  0.14010  0.06240  0.54310  1.0000
  C   C53       1.0  0.26690  0.38270  0.82500  1.0000
  C   C54       1.0  0.73310  0.88270  0.67500  1.0000
  C   C55       1.0  0.73310  0.61730  0.17500  1.0000
  C   C56       1.0  0.26690  0.11730  0.32500  1.0000
  C   C57       1.0  0.87510  0.72080  0.88080  1.0000
  C   C58       1.0  0.12490  0.22080  0.61920  1.0000
  C   C59       1.0  0.12490  0.27920  0.11920  1.0000
  C   C60       1.0  0.87510  0.77920  0.38080  1.0000
  C   C61       1.0  0.95300  0.67740  0.92020  1.0000
  C   C62       1.0  0.04700  0.17740  0.57980  1.0000
  C   C63       1.0  0.04700  0.32260  0.07980  1.0000
  C   C64       1.0  0.95300  0.82260  0.42020  1.0000
  C   C65       1.0  0.96090  0.62730  0.87580  1.0000
  C   C66       1.0  0.03910  0.12730  0.62420  1.0000
  C   C67       1.0  0.03910  0.37270  0.12420  1.0000
  C   C68       1.0  0.96090  0.87270  0.37580  1.0000
  H   H33       1.0  0.91990  0.62110  0.81870  1.0000
  H   H34       1.0  0.08010  0.12110  0.68130  1.0000
  H   H35       1.0  0.08010  0.37890  0.18130  1.0000
  H   H36       1.0  0.91990  0.87890  0.31870  1.0000
  C   C69       1.0  0.02830  0.58640  0.91440  1.0000
  C   C70       1.0  0.97170  0.08640  0.58560  1.0000
  C   C71       1.0  0.97170  0.41360  0.08560  1.0000
  C   C72       1.0  0.02830  0.91360  0.41440  1.0000
  H   H37       1.0  0.03240  0.55290  0.88310  1.0000
  H   H38       1.0  0.96760  0.05290  0.61690  1.0000
  H   H39       1.0  0.96760  0.44710  0.11690  1.0000
  H   H40       1.0  0.03240  0.94710  0.38310  1.0000
  C   C73       1.0  0.08940  0.59440  0.99850  1.0000
  C   C74       1.0  0.91060  0.09440  0.50150  1.0000
  C   C75       1.0  0.91060  0.40560  0.00150  1.0000
  C   C76       1.0  0.08940  0.90560  0.49850  1.0000
  C   C77       1.0  0.08590  0.64620  0.03950  1.0000
  C   C78       1.0  0.91410  0.14620  0.46050  1.0000
  C   C79       1.0  0.91410  0.35380  0.96050  1.0000
  C   C80       1.0  0.08590  0.85380  0.53950  1.0000
  H   H41       1.0  0.13090  0.65370  0.09420  1.0000
  H   H42       1.0  0.86910  0.15370  0.40580  1.0000
  H   H43       1.0  0.86910  0.34630  0.90580  1.0000
  H   H44       1.0  0.13090  0.84630  0.59420  1.0000
  C   C81       1.0  0.02020  0.68620  0.00360  1.0000
  C   C82       1.0  0.97980  0.18620  0.49640  1.0000
  C   C83       1.0  0.97980  0.31380  0.99640  1.0000
  C   C84       1.0  0.02020  0.81380  0.50360  1.0000
  H   H45       1.0  0.01900  0.72040  0.03430  1.0000
  H   H46       1.0  0.98100  0.22040  0.46570  1.0000
  H   H47       1.0  0.98100  0.27960  0.96570  1.0000
  H   H48       1.0  0.01900  0.77960  0.53430  1.0000
  C   C85       1.0  0.84290  0.29340  0.66340  1.0000
  C   C86       1.0  0.15710  0.79340  0.83660  1.0000
  C   C87       1.0  0.15710  0.70660  0.33660  1.0000
  C   C88       1.0  0.84290  0.20660  0.16340  1.0000
  C   C89       1.0  0.82440  0.31370  0.57740  1.0000
  C   C90       1.0  0.17560  0.81370  0.92260  1.0000
  C   C91       1.0  0.17560  0.68630  0.42260  1.0000
  C   C92       1.0  0.82440  0.18630  0.07740  1.0000
  H   H49       1.0  0.76400  0.30910  0.53670  1.0000
  H   H50       1.0  0.23600  0.80910  0.96330  1.0000
  H   H51       1.0  0.23600  0.69090  0.46330  1.0000
  H   H52       1.0  0.76400  0.19090  0.03670  1.0000
  C   C93       1.0  0.89640  0.34100  0.55210  1.0000
  C   C94       1.0  0.10360  0.84100  0.94790  1.0000
  C   C95       1.0  0.10360  0.65900  0.44790  1.0000
  C   C96       1.0  0.89640  0.15900  0.05210  1.0000
  H   H53       1.0  0.88390  0.35520  0.49420  1.0000
  H   H54       1.0  0.11610  0.85520  0.00580  1.0000
  H   H55       1.0  0.11610  0.64480  0.50580  1.0000
  H   H56       1.0  0.88390  0.14480  0.99420  1.0000
  C   C97       1.0  0.98680  0.34750  0.61170  1.0000
  C   C98       1.0  0.01320  0.84750  0.88830  1.0000
  C   C99       1.0  0.01320  0.65250  0.38830  1.0000
  C   C100      1.0  0.98680  0.15250  0.11170  1.0000
  C   C101      1.0  0.00190  0.32660  0.69670  1.0000
  C   C102      1.0  0.99810  0.82660  0.80330  1.0000
  C   C103      1.0  0.99810  0.67340  0.30330  1.0000
  C   C104      1.0  0.00190  0.17340  0.19670  1.0000
  H   H57       1.0  0.06210  0.33090  0.73780  1.0000
  H   H58       1.0  0.93790  0.83090  0.76220  1.0000
  H   H59       1.0  0.93790  0.66910  0.26220  1.0000
  H   H60       1.0  0.06210  0.16910  0.23780  1.0000
  C   C105      1.0  0.93140  0.29950  0.72320  1.0000
  C   C106      1.0  0.06860  0.79950  0.77680  1.0000
  C   C107      1.0  0.06860  0.70050  0.27680  1.0000
  C   C108      1.0  0.93140  0.20050  0.22320  1.0000
  H   H61       1.0  0.94380  0.28550  0.78120  1.0000
  H   H62       1.0  0.05620  0.78550  0.71880  1.0000
  H   H63       1.0  0.05620  0.71450  0.21880  1.0000
  H   H64       1.0  0.94380  0.21450  0.28120  1.0000
  C   C109      1.0  0.06090  0.37861  0.58270  1.0000
  C   C110      1.0  0.93910  0.87861  0.91730  1.0000
  C   C111      1.0  0.93910  0.62139  0.41730  1.0000
  C   C112      1.0  0.06090  0.12139  0.08270  1.0000
  C   C113      1.0  0.78270  0.21160  0.73080  1.0000
  C   C114      1.0  0.21730  0.71160  0.76920  1.0000
  C   C115      1.0  0.21730  0.78840  0.26920  1.0000
  C   C116      1.0  0.78270  0.28840  0.23080  1.0000
  C   C117      1.0  0.85270  0.17330  0.71960  1.0000
  C   C118      1.0  0.14730  0.67330  0.78040  1.0000
  C   C119      1.0  0.14730  0.82670  0.28040  1.0000
  C   C120      1.0  0.85270  0.32670  0.21960  1.0000
  H   H65       1.0  0.89070  0.18340  0.68340  1.0000
  H   H66       1.0  0.10930  0.68340  0.81660  1.0000
  H   H67       1.0  0.10930  0.81660  0.31660  1.0000
  H   H68       1.0  0.89070  0.31660  0.18340  1.0000
  C   C121      1.0  0.86520  0.12050  0.76210  1.0000
  C   C122      1.0  0.13480  0.62050  0.73790  1.0000
  C   C123      1.0  0.13480  0.87950  0.23790  1.0000
  C   C124      1.0  0.86520  0.37950  0.26210  1.0000
  H   H69       1.0  0.91430  0.09640  0.75750  1.0000
  H   H70       1.0  0.08570  0.59640  0.74250  1.0000
  H   H71       1.0  0.08570  0.90360  0.24250  1.0000
  H   H72       1.0  0.91430  0.40360  0.25750  1.0000
  C   C125      1.0  0.80650  0.10370  0.81070  1.0000
  C   C126      1.0  0.19350  0.60370  0.68930  1.0000
  C   C127      1.0  0.19350  0.89630  0.18930  1.0000
  C   C128      1.0  0.80650  0.39630  0.31070  1.0000
  C   C129      1.0  0.73900  0.14110  0.82410  1.0000
  C   C130      1.0  0.26100  0.64110  0.67590  1.0000
  C   C131      1.0  0.26100  0.85890  0.17590  1.0000
  C   C132      1.0  0.73900  0.35890  0.32410  1.0000
  H   H73       1.0  0.70040  0.12950  0.85890  1.0000
  H   H74       1.0  0.29960  0.62950  0.64110  1.0000
  H   H75       1.0  0.29960  0.87050  0.14110  1.0000
  H   H76       1.0  0.70040  0.37050  0.35890  1.0000
  C   C133      1.0  0.72750  0.19470  0.78730  1.0000
  C   C134      1.0  0.27250  0.69470  0.71270  1.0000
  C   C135      1.0  0.27250  0.80530  0.21270  1.0000
  C   C136      1.0  0.72750  0.30530  0.28730  1.0000
  H   H77       1.0  0.68350  0.22010  0.79940  1.0000
  H   H78       1.0  0.31650  0.72010  0.70060  1.0000
  H   H79       1.0  0.31650  0.77990  0.20060  1.0000
  H   H80       1.0  0.68350  0.27990  0.29940  1.0000
  C   C137      1.0  0.81680  0.04440  0.85110  1.0000
  C   C138      1.0  0.18320  0.54440  0.64890  1.0000
  C   C139      1.0  0.18320  0.95560  0.14890  1.0000
  C   C140      1.0  0.81680  0.45560  0.35110  1.0000
  C   C141      1.0  0.67630  0.29150  0.66690  1.0000
  C   C142      1.0  0.32370  0.79150  0.83310  1.0000
  C   C143      1.0  0.32370  0.70850  0.33310  1.0000
  C   C144      1.0  0.67630  0.20850  0.16690  1.0000
  C   C145      1.0  0.59290  0.25930  0.63180  1.0000
  C   C146      1.0  0.40710  0.75930  0.86820  1.0000
  C   C147      1.0  0.40710  0.74070  0.36820  1.0000
  C   C148      1.0  0.59290  0.24070  0.13180  1.0000
  H   H81       1.0  0.59710  0.22030  0.61990  1.0000
  H   H82       1.0  0.40290  0.72030  0.88010  1.0000
  H   H83       1.0  0.40290  0.77970  0.38010  1.0000
  H   H84       1.0  0.59710  0.27970  0.11990  1.0000
  C   C149      1.0  0.50310  0.28560  0.61440  1.0000
  C   C150      1.0  0.49690  0.78560  0.88560  1.0000
  C   C151      1.0  0.49690  0.71440  0.38560  1.0000
  C   C152      1.0  0.50310  0.21440  0.11440  1.0000
  H   H85       1.0  0.44750  0.26380  0.59380  1.0000
  H   H86       1.0  0.55250  0.76380  0.90620  1.0000
  H   H87       1.0  0.55250  0.73620  0.40620  1.0000
  H   H88       1.0  0.44750  0.23620  0.09380  1.0000
  C   C153      1.0  0.49710  0.34310  0.62790  1.0000
  C   C154      1.0  0.50290  0.84310  0.87210  1.0000
  C   C155      1.0  0.50290  0.65690  0.37210  1.0000
  C   C156      1.0  0.49710  0.15690  0.12790  1.0000
  C   C157      1.0  0.57970  0.37540  0.66070  1.0000
  C   C158      1.0  0.42030  0.87540  0.83930  1.0000
  C   C159      1.0  0.42030  0.62460  0.33930  1.0000
  C   C160      1.0  0.57970  0.12460  0.16070  1.0000
  H   H89       1.0  0.57570  0.41460  0.67110  1.0000
  H   H90       1.0  0.42430  0.91460  0.82890  1.0000
  H   H91       1.0  0.42430  0.58540  0.32890  1.0000
  H   H92       1.0  0.57570  0.08540  0.17110  1.0000
  C   C161      1.0  0.66800  0.34920  0.67780  1.0000
  C   C162      1.0  0.33200  0.84920  0.82220  1.0000
  C   C163      1.0  0.33200  0.65080  0.32220  1.0000
  C   C164      1.0  0.66800  0.15080  0.17780  1.0000
  H   H93       1.0  0.72320  0.37140  0.69720  1.0000
  H   H94       1.0  0.27680  0.87140  0.80280  1.0000
  H   H95       1.0  0.27680  0.62860  0.30280  1.0000
  H   H96       1.0  0.72320  0.12860  0.19720  1.0000
  C   C165      1.0  0.40140  0.37060  0.61030  1.0000
  C   C166      1.0  0.59860  0.87060  0.88970  1.0000
  C   C167      1.0  0.59860  0.62940  0.38970  1.0000
  C   C168      1.0  0.40140  0.12940  0.11030  1.0000
  N   N1        1.0  0.15370  0.55012  0.04320  1.0000
  N   N2        1.0  0.84630  0.05012  0.45680  1.0000
  N   N3        1.0  0.84630  0.44988  0.95680  1.0000
  N   N4        1.0  0.15370  0.94988  0.54320  1.0000
  N   N5        1.0  0.76670  0.26527  0.68920  1.0000
  N   N6        1.0  0.23330  0.76527  0.81080  1.0000
  N   N7        1.0  0.23330  0.73473  0.31080  1.0000
  N   N8        1.0  0.76670  0.23473  0.18920  1.0000
  O   O1        1.0  0.11090  0.51543  0.43320  1.0000
  O   O2        1.0  0.88910  0.01543  0.06680  1.0000
  O   O3        1.0  0.88910  0.48457  0.56680  1.0000
  O   O4        1.0  0.11090  0.98457  0.93320  1.0000
  O   O5        1.0  0.22370  0.44960  0.43880  1.0000
  O   O6        1.0  0.77630  0.94960  0.06120  1.0000
  O   O7        1.0  0.77630  0.55040  0.56120  1.0000
  O   O8        1.0  0.22370  0.05040  0.93880  1.0000
  O   O9        1.0  0.31280  0.39780  0.77390  1.0000
  O   O10       1.0  0.68720  0.89780  0.72610  1.0000
  O   O11       1.0  0.68720  0.60220  0.22610  1.0000
  O   O12       1.0  0.31280  0.10220  0.27390  1.0000
  O   O13       1.0  0.23770  0.33120  0.82830  1.0000
  O   O14       1.0  0.76230  0.83120  0.67170  1.0000
  O   O15       1.0  0.76230  0.66880  0.17170  1.0000
  O   O16       1.0  0.23770  0.16880  0.32830  1.0000
  O   O17       1.0  0.85010  0.75425  0.93230  1.0000
  O   O18       1.0  0.14990  0.25425  0.56770  1.0000
  O   O19       1.0  0.14990  0.24575  0.06770  1.0000
  O   O20       1.0  0.85010  0.74575  0.43230  1.0000
  O   O21       1.0  0.83700  0.72015  0.79860  1.0000
  O   O22       1.0  0.16300  0.22015  0.70140  1.0000
  O   O23       1.0  0.16300  0.27985  0.20140  1.0000
  O   O24       1.0  0.83700  0.77985  0.29860  1.0000
  O   O25       1.0  0.04030  0.40536  0.51240  1.0000
  O   O26       1.0  0.95970  0.90536  0.98760  1.0000
  O   O27       1.0  0.95970  0.59464  0.48760  1.0000
  O   O28       1.0  0.04030  0.09464  0.01240  1.0000
  O   O29       1.0  0.14690  0.37612  0.63470  1.0000
  O   O30       1.0  0.85310  0.87612  0.86530  1.0000
  O   O31       1.0  0.85310  0.62388  0.36530  1.0000
  O   O32       1.0  0.14690  0.12388  0.13470  1.0000
  O   O33       1.0  0.89120  0.01696  0.86420  1.0000
  O   O34       1.0  0.10880  0.51696  0.63580  1.0000
  O   O35       1.0  0.10880  0.98304  0.13580  1.0000
  O   O36       1.0  0.89120  0.48304  0.36420  1.0000
  O   O37       1.0  0.74050  0.02532  0.86670  1.0000
  O   O38       1.0  0.25950  0.52532  0.63330  1.0000
  O   O39       1.0  0.25950  0.97468  0.13330  1.0000
  O   O40       1.0  0.74050  0.47468  0.36670  1.0000
  O   O41       1.0  0.32780  0.34112  0.59540  1.0000
  O   O42       1.0  0.67220  0.84112  0.90460  1.0000
  O   O43       1.0  0.67220  0.65888  0.40460  1.0000
  O   O44       1.0  0.32780  0.15888  0.09540  1.0000
  O   O45       1.0  0.39680  0.42356  0.61130  1.0000
  O   O46       1.0  0.60320  0.92356  0.88870  1.0000
  O   O47       1.0  0.60320  0.57644  0.38870  1.0000
  O   O48       1.0  0.39680  0.07644  0.11130  1.0000
  O   O49       1.0  0.39190  0.24960  0.75940  1.0000
  O   O50       1.0  0.60810  0.74960  0.74060  1.0000
  O   O51       1.0  0.60810  0.75040  0.24060  1.0000
  O   O52       1.0  0.39190  0.25040  0.25940  1.0000
  H   H97       1.0  0.42310  0.24480  0.72170  1.0000
  H   H98       1.0  0.57690  0.74480  0.77830  1.0000
  H   H99       1.0  0.57690  0.75520  0.27830  1.0000
  H   H100      1.0  0.42310  0.25520  0.22170  1.0000
  H   H101      1.0  0.37850  0.21650  0.77560  1.0000
  H   H102      1.0  0.62150  0.71650  0.72440  1.0000
  H   H103      1.0  0.62150  0.78350  0.22440  1.0000
  H   H104      1.0  0.37850  0.28350  0.27560  1.0000
