data_image0
_chemical_formula_structural       Pb8Br4O32C24H8C16H8C8H8C24H8C16H8C8H8
_chemical_formula_sum              "Pb8 Br4 O32 C96 H48"
_cell_length_a       17.563
_cell_length_b       23.002
_cell_length_c       8.0489
_cell_angle_alpha    90
_cell_angle_beta     116.98
_cell_angle_gamma    90

_space_group_name_H-M_alt    "P 1"
_space_group_IT_number       1

loop_
  _space_group_symop_operation_xyz
  'x, y, z'

loop_
  _atom_site_type_symbol
  _atom_site_label
  _atom_site_symmetry_multiplicity
  _atom_site_fract_x
  _atom_site_fract_y
  _atom_site_fract_z
  _atom_site_occupancy
  Pb  Pb1       1.0  0.34126  0.48316  0.59622  1.0000
  Pb  Pb2       1.0  0.65874  0.48316  0.90378  1.0000
  Pb  Pb3       1.0  0.84126  0.98316  0.59622  1.0000
  Pb  Pb4       1.0  0.15874  0.98316  0.90378  1.0000
  Pb  Pb5       1.0  0.65874  0.51684  0.40378  1.0000
  Pb  Pb6       1.0  0.34126  0.51684  0.09622  1.0000
  Pb  Pb7       1.0  0.15874  0.01684  0.40378  1.0000
  Pb  Pb8       1.0  0.84126  0.01684  0.09622  1.0000
  Br  Br1       1.0  0.50000  0.50000  1.00000  1.0000
  Br  Br2       1.0  0.50000  0.50000  0.50000  1.0000
  Br  Br3       1.0  1.00000  0.00000  1.00000  1.0000
  Br  Br4       1.0  0.00000  0.00000  0.50000  1.0000
  O   O1        1.0  0.20420  0.45020  0.40400  1.0000
  O   O2        1.0  0.79580  0.45020  0.09600  1.0000
  O   O3        1.0  0.70420  0.95020  0.40400  1.0000
  O   O4        1.0  0.29580  0.95020  0.09600  1.0000
  O   O5        1.0  0.79580  0.54980  0.59600  1.0000
  O   O6        1.0  0.20420  0.54980  0.90400  1.0000
  O   O7        1.0  0.29580  0.04980  0.59600  1.0000
  O   O8        1.0  0.70420  0.04980  0.90400  1.0000
  O   O9        1.0  0.27470  0.44370  0.22900  1.0000
  O   O10       1.0  0.72530  0.44370  0.27100  1.0000
  O   O11       1.0  0.77470  0.94370  0.22900  1.0000
  O   O12       1.0  0.22530  0.94370  0.27100  1.0000
  O   O13       1.0  0.72530  0.55630  0.77100  1.0000
  O   O14       1.0  0.27470  0.55630  0.72900  1.0000
  O   O15       1.0  0.22530  0.05630  0.77100  1.0000
  O   O16       1.0  0.77470  0.05630  0.72900  1.0000
  O   O17       1.0  0.30050  0.42950  0.82000  1.0000
  O   O18       1.0  0.69950  0.42950  0.68000  1.0000
  O   O19       1.0  0.80050  0.92950  0.82000  1.0000
  O   O20       1.0  0.19950  0.92950  0.68000  1.0000
  O   O21       1.0  0.69950  0.57050  0.18000  1.0000
  O   O22       1.0  0.30050  0.57050  0.32000  1.0000
  O   O23       1.0  0.19950  0.07050  0.18000  1.0000
  O   O24       1.0  0.80050  0.07050  0.32000  1.0000
  O   O25       1.0  0.35370  0.37370  0.65200  1.0000
  O   O26       1.0  0.64630  0.37370  0.84800  1.0000
  O   O27       1.0  0.85370  0.87370  0.65200  1.0000
  O   O28       1.0  0.14630  0.87370  0.84800  1.0000
  O   O29       1.0  0.64630  0.62630  0.34800  1.0000
  O   O30       1.0  0.35370  0.62630  0.15200  1.0000
  O   O31       1.0  0.14630  0.12630  0.34800  1.0000
  O   O32       1.0  0.85370  0.12630  0.15200  1.0000
  C   C1        1.0  0.20660  0.44220  0.24400  1.0000
  C   C2        1.0  0.79340  0.44220  0.25600  1.0000
  C   C3        1.0  0.70660  0.94220  0.24400  1.0000
  C   C4        1.0  0.29340  0.94220  0.25600  1.0000
  C   C5        1.0  0.79340  0.55780  0.75600  1.0000
  C   C6        1.0  0.20660  0.55780  0.74400  1.0000
  C   C7        1.0  0.29340  0.05780  0.75600  1.0000
  C   C8        1.0  0.70660  0.05780  0.74400  1.0000
  C   C9        1.0  0.11890  0.43120  0.07000  1.0000
  C   C10       1.0  0.88110  0.43120  0.43000  1.0000
  C   C11       1.0  0.61890  0.93120  0.07000  1.0000
  C   C12       1.0  0.38110  0.93120  0.43000  1.0000
  C   C13       1.0  0.88110  0.56880  0.93000  1.0000
  C   C14       1.0  0.11890  0.56880  0.57000  1.0000
  C   C15       1.0  0.38110  0.06880  0.93000  1.0000
  C   C16       1.0  0.61890  0.06880  0.57000  1.0000
  C   C17       1.0  0.11590  0.42800  0.89100  1.0000
  C   C18       1.0  0.88410  0.42800  0.60900  1.0000
  C   C19       1.0  0.61590  0.92800  0.89100  1.0000
  C   C20       1.0  0.38410  0.92800  0.60900  1.0000
  C   C21       1.0  0.88410  0.57200  0.10900  1.0000
  C   C22       1.0  0.11590  0.57200  0.39100  1.0000
  C   C23       1.0  0.38410  0.07200  0.10900  1.0000
  C   C24       1.0  0.61590  0.07200  0.39100  1.0000
  H   H1        1.0  0.16660  0.42760  0.87670  1.0000
  H   H2        1.0  0.83340  0.42760  0.62330  1.0000
  H   H3        1.0  0.66660  0.92760  0.87670  1.0000
  H   H4        1.0  0.33340  0.92760  0.62330  1.0000
  H   H5        1.0  0.83340  0.57240  0.12330  1.0000
  H   H6        1.0  0.16660  0.57240  0.37670  1.0000
  H   H7        1.0  0.33340  0.07240  0.12330  1.0000
  H   H8        1.0  0.66660  0.07240  0.37670  1.0000
  C   C25       1.0  0.04070  0.42550  0.74700  1.0000
  C   C26       1.0  0.95930  0.42550  0.75300  1.0000
  C   C27       1.0  0.54070  0.92550  0.74700  1.0000
  C   C28       1.0  0.45930  0.92550  0.75300  1.0000
  C   C29       1.0  0.95930  0.57450  0.25300  1.0000
  C   C30       1.0  0.04070  0.57450  0.24700  1.0000
  C   C31       1.0  0.45930  0.07450  0.25300  1.0000
  C   C32       1.0  0.54070  0.07450  0.24700  1.0000
  C   C33       1.0  0.04380  0.42770  0.07200  1.0000
  C   C34       1.0  0.95620  0.42770  0.42800  1.0000
  C   C35       1.0  0.54380  0.92770  0.07200  1.0000
  C   C36       1.0  0.45620  0.92770  0.42800  1.0000
  C   C37       1.0  0.95620  0.57230  0.92800  1.0000
  C   C38       1.0  0.04380  0.57230  0.57200  1.0000
  C   C39       1.0  0.45620  0.07230  0.92800  1.0000
  C   C40       1.0  0.54380  0.07230  0.57200  1.0000
  H   H9        1.0  0.04880  0.42750  0.19490  1.0000
  H   H10       1.0  0.95120  0.42750  0.30510  1.0000
  H   H11       1.0  0.54880  0.92750  0.19490  1.0000
  H   H12       1.0  0.45120  0.92750  0.30510  1.0000
  H   H13       1.0  0.95120  0.57250  0.80510  1.0000
  H   H14       1.0  0.04880  0.57250  0.69490  1.0000
  H   H15       1.0  0.45120  0.07250  0.80510  1.0000
  H   H16       1.0  0.54880  0.07250  0.69490  1.0000
  C   C41       1.0  0.03190  0.42450  0.55100  1.0000
  C   C42       1.0  0.96810  0.42450  0.94900  1.0000
  C   C43       1.0  0.53190  0.92450  0.55100  1.0000
  C   C44       1.0  0.46810  0.92450  0.94900  1.0000
  C   C45       1.0  0.96810  0.57550  0.44900  1.0000
  C   C46       1.0  0.03190  0.57550  0.05100  1.0000
  C   C47       1.0  0.46810  0.07550  0.44900  1.0000
  C   C48       1.0  0.53190  0.07550  0.05100  1.0000
  H   H17       1.0  0.07920  0.42170  0.52470  1.0000
  H   H18       1.0  0.92080  0.42170  0.97530  1.0000
  H   H19       1.0  0.57920  0.92170  0.52470  1.0000
  H   H20       1.0  0.42080  0.92170  0.97530  1.0000
  H   H21       1.0  0.92080  0.57830  0.47530  1.0000
  H   H22       1.0  0.07920  0.57830  0.02470  1.0000
  H   H23       1.0  0.42080  0.07830  0.47530  1.0000
  H   H24       1.0  0.57920  0.07830  0.02470  1.0000
  C   C49       1.0  0.31700  0.37860  0.76600  1.0000
  C   C50       1.0  0.68300  0.37860  0.73400  1.0000
  C   C51       1.0  0.81700  0.87860  0.76600  1.0000
  C   C52       1.0  0.18300  0.87860  0.73400  1.0000
  C   C53       1.0  0.68300  0.62140  0.23400  1.0000
  C   C54       1.0  0.31700  0.62140  0.26600  1.0000
  C   C55       1.0  0.18300  0.12140  0.23400  1.0000
  C   C56       1.0  0.81700  0.12140  0.26600  1.0000
  C   C57       1.0  0.29640  0.32470  0.83300  1.0000
  C   C58       1.0  0.70360  0.32470  0.66700  1.0000
  C   C59       1.0  0.79640  0.82470  0.83300  1.0000
  C   C60       1.0  0.20360  0.82470  0.66700  1.0000
  C   C61       1.0  0.70360  0.67530  0.16700  1.0000
  C   C62       1.0  0.29640  0.67530  0.33300  1.0000
  C   C63       1.0  0.20360  0.17530  0.16700  1.0000
  C   C64       1.0  0.79640  0.17530  0.33300  1.0000
  C   C65       1.0  0.27710  0.32740  0.98600  1.0000
  C   C66       1.0  0.72290  0.32740  0.51400  1.0000
  C   C67       1.0  0.77710  0.82740  0.98600  1.0000
  C   C68       1.0  0.22290  0.82740  0.51400  1.0000
  C   C69       1.0  0.72290  0.67260  0.01400  1.0000
  C   C70       1.0  0.27710  0.67260  0.48600  1.0000
  C   C71       1.0  0.22290  0.17260  0.01400  1.0000
  C   C72       1.0  0.77710  0.17260  0.48600  1.0000
  H   H25       1.0  0.28240  0.36280  0.05120  1.0000
  H   H26       1.0  0.71760  0.36280  0.44880  1.0000
  H   H27       1.0  0.78240  0.86280  0.05120  1.0000
  H   H28       1.0  0.21760  0.86280  0.44880  1.0000
  H   H29       1.0  0.71760  0.63720  0.94880  1.0000
  H   H30       1.0  0.28240  0.63720  0.55120  1.0000
  H   H31       1.0  0.21760  0.13720  0.94880  1.0000
  H   H32       1.0  0.78240  0.13720  0.55120  1.0000
  C   C73       1.0  0.25030  0.27670  0.04000  1.0000
  C   C74       1.0  0.74970  0.27670  0.46000  1.0000
  C   C75       1.0  0.75030  0.77670  0.04000  1.0000
  C   C76       1.0  0.24970  0.77670  0.46000  1.0000
  C   C77       1.0  0.74970  0.72330  0.96000  1.0000
  C   C78       1.0  0.25030  0.72330  0.54000  1.0000
  C   C79       1.0  0.24970  0.22330  0.96000  1.0000
  C   C80       1.0  0.75030  0.22330  0.54000  1.0000
  C   C81       1.0  0.26800  0.22210  0.80400  1.0000
  C   C82       1.0  0.73200  0.22210  0.69600  1.0000
  C   C83       1.0  0.76800  0.72210  0.80400  1.0000
  C   C84       1.0  0.23200  0.72210  0.69600  1.0000
  C   C85       1.0  0.73200  0.77790  0.19600  1.0000
  C   C86       1.0  0.26800  0.77790  0.30400  1.0000
  C   C87       1.0  0.23200  0.27790  0.19600  1.0000
  C   C88       1.0  0.76800  0.27790  0.30400  1.0000
  H   H33       1.0  0.26090  0.18690  0.73700  1.0000
  H   H34       1.0  0.73910  0.18690  0.76300  1.0000
  H   H35       1.0  0.76090  0.68690  0.73700  1.0000
  H   H36       1.0  0.23910  0.68690  0.76300  1.0000
  H   H37       1.0  0.73910  0.81310  0.26300  1.0000
  H   H38       1.0  0.26090  0.81310  0.23700  1.0000
  H   H39       1.0  0.23910  0.31310  0.26300  1.0000
  H   H40       1.0  0.76090  0.31310  0.23700  1.0000
  C   C89       1.0  0.29370  0.26960  0.75100  1.0000
  C   C90       1.0  0.70630  0.26960  0.74900  1.0000
  C   C91       1.0  0.79370  0.76960  0.75100  1.0000
  C   C92       1.0  0.20630  0.76960  0.74900  1.0000
  C   C93       1.0  0.70630  0.73040  0.24900  1.0000
  C   C94       1.0  0.29370  0.73040  0.25100  1.0000
  C   C95       1.0  0.20630  0.23040  0.24900  1.0000
  C   C96       1.0  0.79370  0.23040  0.25100  1.0000
  H   H41       1.0  0.31120  0.26660  0.65590  1.0000
  H   H42       1.0  0.68880  0.26660  0.84410  1.0000
  H   H43       1.0  0.81120  0.76660  0.65590  1.0000
  H   H44       1.0  0.18880  0.76660  0.84410  1.0000
  H   H45       1.0  0.68880  0.73340  0.34410  1.0000
  H   H46       1.0  0.31120  0.73340  0.15590  1.0000
  H   H47       1.0  0.18880  0.23340  0.34410  1.0000
  H   H48       1.0  0.81120  0.23340  0.15590  1.0000
