data_image0
_chemical_formula_structural       Pb8I4O32C24H8C8H8C16H8C24H8C16H8C8H8
_chemical_formula_sum              "Pb8 I4 O32 C96 H48"
_cell_length_a       17.442
_cell_length_b       22.968
_cell_length_c       7.9938
_cell_angle_alpha    90
_cell_angle_beta     116.63
_cell_angle_gamma    90

_space_group_name_H-M_alt    "P 1"
_space_group_IT_number       1

loop_
  _space_group_symop_operation_xyz
  'x, y, z'

loop_
  _atom_site_type_symbol
  _atom_site_label
  _atom_site_symmetry_multiplicity
  _atom_site_fract_x
  _atom_site_fract_y
  _atom_site_fract_z
  _atom_site_occupancy
  Pb  Pb1       1.0  0.15524  0.48286  0.39955  1.0000
  Pb  Pb2       1.0  0.84476  0.48286  0.10045  1.0000
  Pb  Pb3       1.0  0.65524  0.98286  0.39955  1.0000
  Pb  Pb4       1.0  0.34476  0.98286  0.10045  1.0000
  Pb  Pb5       1.0  0.84476  0.51714  0.60045  1.0000
  Pb  Pb6       1.0  0.15524  0.51714  0.89955  1.0000
  Pb  Pb7       1.0  0.34476  0.01714  0.60045  1.0000
  Pb  Pb8       1.0  0.65524  0.01714  0.89955  1.0000
  I   I1        1.0  0.00000  0.50000  0.00000  1.0000
  I   I2        1.0  0.00000  0.50000  0.50000  1.0000
  I   I3        1.0  0.50000  0.00000  0.00000  1.0000
  I   I4        1.0  0.50000  0.00000  0.50000  1.0000
  O   O1        1.0  0.29700  0.45090  0.60200  1.0000
  O   O2        1.0  0.70300  0.45090  0.89800  1.0000
  O   O3        1.0  0.79700  0.95090  0.60200  1.0000
  O   O4        1.0  0.20300  0.95090  0.89800  1.0000
  O   O5        1.0  0.70300  0.54910  0.39800  1.0000
  O   O6        1.0  0.29700  0.54910  0.10200  1.0000
  O   O7        1.0  0.20300  0.04910  0.39800  1.0000
  O   O8        1.0  0.79700  0.04910  0.10200  1.0000
  O   O9        1.0  0.22440  0.44480  0.77030  1.0000
  O   O10       1.0  0.77560  0.44480  0.72970  1.0000
  O   O11       1.0  0.72440  0.94480  0.77030  1.0000
  O   O12       1.0  0.27560  0.94480  0.72970  1.0000
  O   O13       1.0  0.77560  0.55520  0.22970  1.0000
  O   O14       1.0  0.22440  0.55520  0.27030  1.0000
  O   O15       1.0  0.27560  0.05520  0.22970  1.0000
  O   O16       1.0  0.72440  0.05520  0.27030  1.0000
  O   O17       1.0  0.14430  0.37490  0.34420  1.0000
  O   O18       1.0  0.85570  0.37490  0.15580  1.0000
  O   O19       1.0  0.64430  0.87490  0.34420  1.0000
  O   O20       1.0  0.35570  0.87490  0.15580  1.0000
  O   O21       1.0  0.85570  0.62510  0.65580  1.0000
  O   O22       1.0  0.14430  0.62510  0.84420  1.0000
  O   O23       1.0  0.35570  0.12510  0.65580  1.0000
  O   O24       1.0  0.64430  0.12510  0.84420  1.0000
  O   O25       1.0  0.19290  0.42740  0.18140  1.0000
  O   O26       1.0  0.80710  0.42740  0.31860  1.0000
  O   O27       1.0  0.69290  0.92740  0.18140  1.0000
  O   O28       1.0  0.30710  0.92740  0.31860  1.0000
  O   O29       1.0  0.80710  0.57260  0.81860  1.0000
  O   O30       1.0  0.19290  0.57260  0.68140  1.0000
  O   O31       1.0  0.30710  0.07260  0.81860  1.0000
  O   O32       1.0  0.69290  0.07260  0.68140  1.0000
  C   C1        1.0  0.29750  0.44160  0.75890  1.0000
  C   C2        1.0  0.70250  0.44160  0.74110  1.0000
  C   C3        1.0  0.79750  0.94160  0.75890  1.0000
  C   C4        1.0  0.20250  0.94160  0.74110  1.0000
  C   C5        1.0  0.70250  0.55840  0.24110  1.0000
  C   C6        1.0  0.29750  0.55840  0.25890  1.0000
  C   C7        1.0  0.20250  0.05840  0.24110  1.0000
  C   C8        1.0  0.79750  0.05840  0.25890  1.0000
  C   C9        1.0  0.37810  0.43110  0.92560  1.0000
  C   C10       1.0  0.62190  0.43110  0.57440  1.0000
  C   C11       1.0  0.87810  0.93110  0.92560  1.0000
  C   C12       1.0  0.12190  0.93110  0.57440  1.0000
  C   C13       1.0  0.62190  0.56890  0.07440  1.0000
  C   C14       1.0  0.37810  0.56890  0.42560  1.0000
  C   C15       1.0  0.12190  0.06890  0.07440  1.0000
  C   C16       1.0  0.87810  0.06890  0.42560  1.0000
  C   C17       1.0  0.45080  0.42720  0.90200  1.0000
  C   C18       1.0  0.54920  0.42720  0.59800  1.0000
  C   C19       1.0  0.95080  0.92720  0.90200  1.0000
  C   C20       1.0  0.04920  0.92720  0.59800  1.0000
  C   C21       1.0  0.54920  0.57280  0.09800  1.0000
  C   C22       1.0  0.45080  0.57280  0.40200  1.0000
  C   C23       1.0  0.04920  0.07280  0.09800  1.0000
  C   C24       1.0  0.95080  0.07280  0.40200  1.0000
  H   H1        1.0  0.44560  0.42600  0.77830  1.0000
  H   H2        1.0  0.55440  0.42600  0.72170  1.0000
  H   H3        1.0  0.94560  0.92600  0.77830  1.0000
  H   H4        1.0  0.05440  0.92600  0.72170  1.0000
  H   H5        1.0  0.55440  0.57400  0.22170  1.0000
  H   H6        1.0  0.44560  0.57400  0.27830  1.0000
  H   H7        1.0  0.05440  0.07400  0.22170  1.0000
  H   H8        1.0  0.94560  0.07400  0.27830  1.0000
  C   C25       1.0  0.53280  0.42470  0.05400  1.0000
  C   C26       1.0  0.46720  0.42470  0.44600  1.0000
  C   C27       1.0  0.03280  0.92470  0.05400  1.0000
  C   C28       1.0  0.96720  0.92470  0.44600  1.0000
  C   C29       1.0  0.46720  0.57530  0.94600  1.0000
  C   C30       1.0  0.53280  0.57530  0.55400  1.0000
  C   C31       1.0  0.96720  0.07530  0.94600  1.0000
  C   C32       1.0  0.03280  0.07530  0.55400  1.0000
  H   H9        1.0  0.58240  0.42280  0.03350  1.0000
  H   H10       1.0  0.41760  0.42280  0.46650  1.0000
  H   H11       1.0  0.08240  0.92280  0.03350  1.0000
  H   H12       1.0  0.91760  0.92280  0.46650  1.0000
  H   H13       1.0  0.41760  0.57720  0.96650  1.0000
  H   H14       1.0  0.58240  0.57720  0.53350  1.0000
  H   H15       1.0  0.91760  0.07720  0.96650  1.0000
  H   H16       1.0  0.08240  0.07720  0.53350  1.0000
  C   C33       1.0  0.54060  0.42520  0.24350  1.0000
  C   C34       1.0  0.45940  0.42520  0.25650  1.0000
  C   C35       1.0  0.04060  0.92520  0.24350  1.0000
  C   C36       1.0  0.95940  0.92520  0.25650  1.0000
  C   C37       1.0  0.45940  0.57480  0.75650  1.0000
  C   C38       1.0  0.54060  0.57480  0.74350  1.0000
  C   C39       1.0  0.95940  0.07480  0.75650  1.0000
  C   C40       1.0  0.04060  0.07480  0.74350  1.0000
  C   C41       1.0  0.38360  0.42780  0.10190  1.0000
  C   C42       1.0  0.61640  0.42780  0.39810  1.0000
  C   C43       1.0  0.88360  0.92780  0.10190  1.0000
  C   C44       1.0  0.11640  0.92780  0.39810  1.0000
  C   C45       1.0  0.61640  0.57220  0.89810  1.0000
  C   C46       1.0  0.38360  0.57220  0.60190  1.0000
  C   C47       1.0  0.11640  0.07220  0.89810  1.0000
  C   C48       1.0  0.88360  0.07220  0.60190  1.0000
  H   H17       1.0  0.33220  0.42730  0.11550  1.0000
  H   H18       1.0  0.66780  0.42730  0.38450  1.0000
  H   H19       1.0  0.83220  0.92730  0.11550  1.0000
  H   H20       1.0  0.16780  0.92730  0.38450  1.0000
  H   H21       1.0  0.66780  0.57270  0.88450  1.0000
  H   H22       1.0  0.33220  0.57270  0.61550  1.0000
  H   H23       1.0  0.16780  0.07270  0.88450  1.0000
  H   H24       1.0  0.83220  0.07270  0.61550  1.0000
  C   C49       1.0  0.17550  0.37870  0.23100  1.0000
  C   C50       1.0  0.82450  0.37870  0.26900  1.0000
  C   C51       1.0  0.67550  0.87870  0.23100  1.0000
  C   C52       1.0  0.32450  0.87870  0.26900  1.0000
  C   C53       1.0  0.82450  0.62130  0.76900  1.0000
  C   C54       1.0  0.17550  0.62130  0.73100  1.0000
  C   C55       1.0  0.32450  0.12130  0.76900  1.0000
  C   C56       1.0  0.67550  0.12130  0.73100  1.0000
  C   C57       1.0  0.20190  0.32430  0.16490  1.0000
  C   C58       1.0  0.79810  0.32430  0.33510  1.0000
  C   C59       1.0  0.70190  0.82430  0.16490  1.0000
  C   C60       1.0  0.29810  0.82430  0.33510  1.0000
  C   C61       1.0  0.79810  0.67570  0.83510  1.0000
  C   C62       1.0  0.20190  0.67570  0.66490  1.0000
  C   C63       1.0  0.29810  0.17570  0.83510  1.0000
  C   C64       1.0  0.70190  0.17570  0.66490  1.0000
  C   C65       1.0  0.22140  0.32850  0.01680  1.0000
  C   C66       1.0  0.77860  0.32850  0.48320  1.0000
  C   C67       1.0  0.72140  0.82850  0.01680  1.0000
  C   C68       1.0  0.27860  0.82850  0.48320  1.0000
  C   C69       1.0  0.77860  0.67150  0.98320  1.0000
  C   C70       1.0  0.22140  0.67150  0.51680  1.0000
  C   C71       1.0  0.27860  0.17150  0.98320  1.0000
  C   C72       1.0  0.72140  0.17150  0.51680  1.0000
  H   H25       1.0  0.21760  0.36470  0.95610  1.0000
  H   H26       1.0  0.78240  0.36470  0.54390  1.0000
  H   H27       1.0  0.71760  0.86470  0.95610  1.0000
  H   H28       1.0  0.28240  0.86470  0.54390  1.0000
  H   H29       1.0  0.78240  0.63530  0.04390  1.0000
  H   H30       1.0  0.21760  0.63530  0.45610  1.0000
  H   H31       1.0  0.28240  0.13530  0.04390  1.0000
  H   H32       1.0  0.71760  0.13530  0.45610  1.0000
  C   C73       1.0  0.24750  0.27670  0.95660  1.0000
  C   C74       1.0  0.75250  0.27670  0.54340  1.0000
  C   C75       1.0  0.74750  0.77670  0.95660  1.0000
  C   C76       1.0  0.25250  0.77670  0.54340  1.0000
  C   C77       1.0  0.75250  0.72330  0.04340  1.0000
  C   C78       1.0  0.24750  0.72330  0.45660  1.0000
  C   C79       1.0  0.25250  0.22330  0.04340  1.0000
  C   C80       1.0  0.74750  0.22330  0.45660  1.0000
  C   C81       1.0  0.22830  0.22110  0.19560  1.0000
  C   C82       1.0  0.77170  0.22110  0.30440  1.0000
  C   C83       1.0  0.72830  0.72110  0.19560  1.0000
  C   C84       1.0  0.27170  0.72110  0.30440  1.0000
  C   C85       1.0  0.77170  0.77890  0.80440  1.0000
  C   C86       1.0  0.22830  0.77890  0.69560  1.0000
  C   C87       1.0  0.27170  0.27890  0.80440  1.0000
  C   C88       1.0  0.72830  0.27890  0.69560  1.0000
  H   H33       1.0  0.22860  0.18510  0.25420  1.0000
  H   H34       1.0  0.77140  0.18510  0.24580  1.0000
  H   H35       1.0  0.72860  0.68510  0.25420  1.0000
  H   H36       1.0  0.27140  0.68510  0.24580  1.0000
  H   H37       1.0  0.77140  0.81490  0.74580  1.0000
  H   H38       1.0  0.22860  0.81490  0.75420  1.0000
  H   H39       1.0  0.27140  0.31490  0.74580  1.0000
  H   H40       1.0  0.72860  0.31490  0.75420  1.0000
  C   C89       1.0  0.20510  0.27080  0.25380  1.0000
  C   C90       1.0  0.79490  0.27080  0.24620  1.0000
  C   C91       1.0  0.70510  0.77080  0.25380  1.0000
  C   C92       1.0  0.29490  0.77080  0.24620  1.0000
  C   C93       1.0  0.79490  0.72920  0.74620  1.0000
  C   C94       1.0  0.20510  0.72920  0.75380  1.0000
  C   C95       1.0  0.29490  0.22920  0.74620  1.0000
  C   C96       1.0  0.70510  0.22920  0.75380  1.0000
  H   H41       1.0  0.19100  0.26940  0.35560  1.0000
  H   H42       1.0  0.80900  0.26940  0.14440  1.0000
  H   H43       1.0  0.69100  0.76940  0.35560  1.0000
  H   H44       1.0  0.30900  0.76940  0.14440  1.0000
  H   H45       1.0  0.80900  0.73060  0.64440  1.0000
  H   H46       1.0  0.19100  0.73060  0.85560  1.0000
  H   H47       1.0  0.30900  0.23060  0.64440  1.0000
  H   H48       1.0  0.69100  0.23060  0.85560  1.0000
