data_image0
_chemical_formula_structural       C24H8C16H8C16H8C40H24C8H24C16H8C16H8C16H8C16Cd8N8H8N40H8O32H8O32
_chemical_formula_sum              "C168 H120 Cd8 N48 O64"
_cell_length_a       33.5551
_cell_length_b       10.283
_cell_length_c       20.3648
_cell_angle_alpha    90
_cell_angle_beta     119.265
_cell_angle_gamma    90

_space_group_name_H-M_alt    "P 1"
_space_group_IT_number       1

loop_
  _space_group_symop_operation_xyz
  'x, y, z'

loop_
  _atom_site_type_symbol
  _atom_site_label
  _atom_site_symmetry_multiplicity
  _atom_site_fract_x
  _atom_site_fract_y
  _atom_site_fract_z
  _atom_site_occupancy
  C   C1        1.0  0.90490  0.28110  0.13710  1.0000
  C   C2        1.0  0.09510  0.28110  0.36290  1.0000
  C   C3        1.0  0.40490  0.78110  0.13710  1.0000
  C   C4        1.0  0.59510  0.78110  0.36290  1.0000
  C   C5        1.0  0.09510  0.71890  0.86290  1.0000
  C   C6        1.0  0.90490  0.71890  0.63710  1.0000
  C   C7        1.0  0.59510  0.21890  0.86290  1.0000
  C   C8        1.0  0.40490  0.21890  0.63710  1.0000
  C   C9        1.0  0.93020  0.30280  0.09420  1.0000
  C   C10       1.0  0.06980  0.30280  0.40580  1.0000
  C   C11       1.0  0.43020  0.80280  0.09420  1.0000
  C   C12       1.0  0.56980  0.80280  0.40580  1.0000
  C   C13       1.0  0.06980  0.69720  0.90580  1.0000
  C   C14       1.0  0.93020  0.69720  0.59420  1.0000
  C   C15       1.0  0.56980  0.19720  0.90580  1.0000
  C   C16       1.0  0.43020  0.19720  0.59420  1.0000
  C   C17       1.0  0.90650  0.33690  0.01870  1.0000
  C   C18       1.0  0.09350  0.33690  0.48130  1.0000
  C   C19       1.0  0.40650  0.83690  0.01870  1.0000
  C   C20       1.0  0.59350  0.83690  0.48130  1.0000
  C   C21       1.0  0.09350  0.66310  0.98130  1.0000
  C   C22       1.0  0.90650  0.66310  0.51870  1.0000
  C   C23       1.0  0.59350  0.16310  0.98130  1.0000
  C   C24       1.0  0.40650  0.16310  0.51870  1.0000
  H   H1        1.0  0.87500  0.34910  0.99490  1.0000
  H   H2        1.0  0.12500  0.34910  0.50510  1.0000
  H   H3        1.0  0.37500  0.84910  0.99490  1.0000
  H   H4        1.0  0.62500  0.84910  0.50510  1.0000
  H   H5        1.0  0.12500  0.65090  0.00510  1.0000
  H   H6        1.0  0.87500  0.65090  0.49490  1.0000
  H   H7        1.0  0.62500  0.15090  0.00510  1.0000
  H   H8        1.0  0.37500  0.15090  0.49490  1.0000
  C   C25       1.0  0.92990  0.35260  0.97880  1.0000
  C   C26       1.0  0.07010  0.35260  0.52120  1.0000
  C   C27       1.0  0.42990  0.85260  0.97880  1.0000
  C   C28       1.0  0.57010  0.85260  0.52120  1.0000
  C   C29       1.0  0.07010  0.64740  0.02120  1.0000
  C   C30       1.0  0.92990  0.64740  0.47880  1.0000
  C   C31       1.0  0.57010  0.14740  0.02120  1.0000
  C   C32       1.0  0.42990  0.14740  0.47880  1.0000
  C   C33       1.0  0.97700  0.33790  0.01360  1.0000
  C   C34       1.0  0.02300  0.33790  0.48640  1.0000
  C   C35       1.0  0.47700  0.83790  0.01360  1.0000
  C   C36       1.0  0.52300  0.83790  0.48640  1.0000
  C   C37       1.0  0.02300  0.66210  0.98640  1.0000
  C   C38       1.0  0.97700  0.66210  0.51360  1.0000
  C   C39       1.0  0.52300  0.16210  0.98640  1.0000
  C   C40       1.0  0.47700  0.16210  0.51360  1.0000
  H   H9        1.0  0.99230  0.34950  0.98650  1.0000
  H   H10       1.0  0.00770  0.34950  0.51350  1.0000
  H   H11       1.0  0.49230  0.84950  0.98650  1.0000
  H   H12       1.0  0.50770  0.84950  0.51350  1.0000
  H   H13       1.0  0.00770  0.65050  0.01350  1.0000
  H   H14       1.0  0.99230  0.65050  0.48650  1.0000
  H   H15       1.0  0.50770  0.15050  0.01350  1.0000
  H   H16       1.0  0.49230  0.15050  0.48650  1.0000
  C   C41       1.0  0.00110  0.30540  0.09030  1.0000
  C   C42       1.0  0.99890  0.30540  0.40970  1.0000
  C   C43       1.0  0.50110  0.80540  0.09030  1.0000
  C   C44       1.0  0.49890  0.80540  0.40970  1.0000
  C   C45       1.0  0.99890  0.69460  0.90970  1.0000
  C   C46       1.0  0.00110  0.69460  0.59030  1.0000
  C   C47       1.0  0.49890  0.19460  0.90970  1.0000
  C   C48       1.0  0.50110  0.19460  0.59030  1.0000
  C   C49       1.0  0.97730  0.28810  0.13000  1.0000
  C   C50       1.0  0.02270  0.28810  0.37000  1.0000
  C   C51       1.0  0.47730  0.78810  0.13000  1.0000
  C   C52       1.0  0.52270  0.78810  0.37000  1.0000
  C   C53       1.0  0.02270  0.71190  0.87000  1.0000
  C   C54       1.0  0.97730  0.71190  0.63000  1.0000
  C   C55       1.0  0.52270  0.21190  0.87000  1.0000
  C   C56       1.0  0.47730  0.21190  0.63000  1.0000
  H   H17       1.0  0.99320  0.26660  0.18090  1.0000
  H   H18       1.0  0.00680  0.26660  0.31910  1.0000
  H   H19       1.0  0.49320  0.76660  0.18090  1.0000
  H   H20       1.0  0.50680  0.76660  0.31910  1.0000
  H   H21       1.0  0.00680  0.73340  0.81910  1.0000
  H   H22       1.0  0.99320  0.73340  0.68090  1.0000
  H   H23       1.0  0.50680  0.23340  0.81910  1.0000
  H   H24       1.0  0.49320  0.23340  0.68090  1.0000
  C   C57       1.0  0.90260  0.38630  0.89760  1.0000
  C   C58       1.0  0.09740  0.38630  0.60240  1.0000
  C   C59       1.0  0.40260  0.88630  0.89760  1.0000
  C   C60       1.0  0.59740  0.88630  0.60240  1.0000
  C   C61       1.0  0.09740  0.61370  0.10240  1.0000
  C   C62       1.0  0.90260  0.61370  0.39760  1.0000
  C   C63       1.0  0.59740  0.11370  0.10240  1.0000
  C   C64       1.0  0.40260  0.11370  0.39760  1.0000
  C   C65       1.0  0.08130  0.29200  0.11140  1.0000
  C   C66       1.0  0.91870  0.29200  0.38860  1.0000
  C   C67       1.0  0.58130  0.79200  0.11140  1.0000
  C   C68       1.0  0.41870  0.79200  0.38860  1.0000
  C   C69       1.0  0.91870  0.70800  0.88860  1.0000
  C   C70       1.0  0.08130  0.70800  0.61140  1.0000
  C   C71       1.0  0.41870  0.20800  0.88860  1.0000
  C   C72       1.0  0.58130  0.20800  0.61140  1.0000
  C   C73       1.0  0.10480  0.31740  0.02560  1.0000
  C   C74       1.0  0.89520  0.31740  0.47440  1.0000
  C   C75       1.0  0.60480  0.81740  0.02560  1.0000
  C   C76       1.0  0.39520  0.81740  0.47440  1.0000
  C   C77       1.0  0.89520  0.68260  0.97440  1.0000
  C   C78       1.0  0.10480  0.68260  0.52560  1.0000
  C   C79       1.0  0.39520  0.18260  0.97440  1.0000
  C   C80       1.0  0.60480  0.18260  0.52560  1.0000
  C   C81       1.0  0.15680  0.27440  0.14590  1.0000
  C   C82       1.0  0.84320  0.27440  0.35410  1.0000
  C   C83       1.0  0.65680  0.77440  0.14590  1.0000
  C   C84       1.0  0.34320  0.77440  0.35410  1.0000
  C   C85       1.0  0.84320  0.72560  0.85410  1.0000
  C   C86       1.0  0.15680  0.72560  0.64590  1.0000
  C   C87       1.0  0.34320  0.22560  0.85410  1.0000
  C   C88       1.0  0.65680  0.22560  0.64590  1.0000
  C   C89       1.0  0.04790  0.35910  0.89540  1.0000
  C   C90       1.0  0.95210  0.35910  0.60460  1.0000
  C   C91       1.0  0.54790  0.85910  0.89540  1.0000
  C   C92       1.0  0.45210  0.85910  0.60460  1.0000
  C   C93       1.0  0.95210  0.64090  0.10460  1.0000
  C   C94       1.0  0.04790  0.64090  0.39540  1.0000
  C   C95       1.0  0.45210  0.14090  0.10460  1.0000
  C   C96       1.0  0.54790  0.14090  0.39540  1.0000
  H   H25       1.0  0.04580  0.34340  0.84740  1.0000
  H   H26       1.0  0.95420  0.34340  0.65260  1.0000
  H   H27       1.0  0.54580  0.84340  0.84740  1.0000
  H   H28       1.0  0.45420  0.84340  0.65260  1.0000
  H   H29       1.0  0.95420  0.65660  0.15260  1.0000
  H   H30       1.0  0.04580  0.65660  0.34740  1.0000
  H   H31       1.0  0.45420  0.15660  0.15260  1.0000
  H   H32       1.0  0.54580  0.15660  0.34740  1.0000
  H   H33       1.0  0.03800  0.44620  0.89690  1.0000
  H   H34       1.0  0.96200  0.44620  0.60310  1.0000
  H   H35       1.0  0.53800  0.94620  0.89690  1.0000
  H   H36       1.0  0.46200  0.94620  0.60310  1.0000
  H   H37       1.0  0.96200  0.55380  0.10310  1.0000
  H   H38       1.0  0.03800  0.55380  0.39690  1.0000
  H   H39       1.0  0.46200  0.05380  0.10310  1.0000
  H   H40       1.0  0.53800  0.05380  0.39690  1.0000
  H   H41       1.0  0.02870  0.29850  0.90300  1.0000
  H   H42       1.0  0.97130  0.29850  0.59700  1.0000
  H   H43       1.0  0.52870  0.79850  0.90300  1.0000
  H   H44       1.0  0.47130  0.79850  0.59700  1.0000
  H   H45       1.0  0.97130  0.70150  0.09700  1.0000
  H   H46       1.0  0.02870  0.70150  0.40300  1.0000
  H   H47       1.0  0.47130  0.20150  0.09700  1.0000
  H   H48       1.0  0.52870  0.20150  0.40300  1.0000
  C   C97       1.0  0.13000  0.35180  0.93350  1.0000
  C   C98       1.0  0.87000  0.35180  0.56650  1.0000
  C   C99       1.0  0.63000  0.85180  0.93350  1.0000
  C   C100      1.0  0.37000  0.85180  0.56650  1.0000
  C   C101      1.0  0.87000  0.64820  0.06650  1.0000
  C   C102      1.0  0.13000  0.64820  0.43350  1.0000
  C   C103      1.0  0.37000  0.14820  0.06650  1.0000
  C   C104      1.0  0.63000  0.14820  0.43350  1.0000
  H   H49       1.0  0.12220  0.41730  0.89550  1.0000
  H   H50       1.0  0.87780  0.41730  0.60450  1.0000
  H   H51       1.0  0.62220  0.91730  0.89550  1.0000
  H   H52       1.0  0.37780  0.91730  0.60450  1.0000
  H   H53       1.0  0.87780  0.58270  0.10450  1.0000
  H   H54       1.0  0.12220  0.58270  0.39550  1.0000
  H   H55       1.0  0.37780  0.08270  0.10450  1.0000
  H   H56       1.0  0.62220  0.08270  0.39550  1.0000
  H   H57       1.0  0.13320  0.26940  0.91440  1.0000
  H   H58       1.0  0.86680  0.26940  0.58560  1.0000
  H   H59       1.0  0.63320  0.76940  0.91440  1.0000
  H   H60       1.0  0.36680  0.76940  0.58560  1.0000
  H   H61       1.0  0.86680  0.73060  0.08560  1.0000
  H   H62       1.0  0.13320  0.73060  0.41440  1.0000
  H   H63       1.0  0.36680  0.23060  0.08560  1.0000
  H   H64       1.0  0.63320  0.23060  0.41440  1.0000
  H   H65       1.0  0.15830  0.37440  0.97720  1.0000
  H   H66       1.0  0.84170  0.37440  0.52280  1.0000
  H   H67       1.0  0.65830  0.87440  0.97720  1.0000
  H   H68       1.0  0.34170  0.87440  0.52280  1.0000
  H   H69       1.0  0.84170  0.62560  0.02280  1.0000
  H   H70       1.0  0.15830  0.62560  0.47720  1.0000
  H   H71       1.0  0.34170  0.12560  0.02280  1.0000
  H   H72       1.0  0.65830  0.12560  0.47720  1.0000
  C   C105      1.0  0.23910  0.25930  0.18960  1.0000
  C   C106      1.0  0.76090  0.25930  0.31040  1.0000
  C   C107      1.0  0.73910  0.75930  0.18960  1.0000
  C   C108      1.0  0.26090  0.75930  0.31040  1.0000
  C   C109      1.0  0.76090  0.74070  0.81040  1.0000
  C   C110      1.0  0.23910  0.74070  0.68960  1.0000
  C   C111      1.0  0.26090  0.24070  0.81040  1.0000
  C   C112      1.0  0.73910  0.24070  0.68960  1.0000
  C   C113      1.0  0.25590  0.37740  0.18370  1.0000
  C   C114      1.0  0.74410  0.37740  0.31630  1.0000
  C   C115      1.0  0.75590  0.87740  0.18370  1.0000
  C   C116      1.0  0.24410  0.87740  0.31630  1.0000
  C   C117      1.0  0.74410  0.62260  0.81630  1.0000
  C   C118      1.0  0.25590  0.62260  0.68370  1.0000
  C   C119      1.0  0.24410  0.12260  0.81630  1.0000
  C   C120      1.0  0.75590  0.12260  0.68370  1.0000
  H   H73       1.0  0.23940  0.45280  0.17870  1.0000
  H   H74       1.0  0.76060  0.45280  0.32130  1.0000
  H   H75       1.0  0.73940  0.95280  0.17870  1.0000
  H   H76       1.0  0.26060  0.95280  0.32130  1.0000
  H   H77       1.0  0.76060  0.54720  0.82130  1.0000
  H   H78       1.0  0.23940  0.54720  0.67870  1.0000
  H   H79       1.0  0.26060  0.04720  0.82130  1.0000
  H   H80       1.0  0.73940  0.04720  0.67870  1.0000
  C   C121      1.0  0.29790  0.38510  0.18530  1.0000
  C   C122      1.0  0.70210  0.38510  0.31470  1.0000
  C   C123      1.0  0.79790  0.88510  0.18530  1.0000
  C   C124      1.0  0.20210  0.88510  0.31470  1.0000
  C   C125      1.0  0.70210  0.61490  0.81470  1.0000
  C   C126      1.0  0.29790  0.61490  0.68530  1.0000
  C   C127      1.0  0.20210  0.11490  0.81470  1.0000
  C   C128      1.0  0.79790  0.11490  0.68530  1.0000
  C   C129      1.0  0.32240  0.27190  0.19200  1.0000
  C   C130      1.0  0.67760  0.27190  0.30800  1.0000
  C   C131      1.0  0.82240  0.77190  0.19200  1.0000
  C   C132      1.0  0.17760  0.77190  0.30800  1.0000
  C   C133      1.0  0.67760  0.72810  0.80800  1.0000
  C   C134      1.0  0.32240  0.72810  0.69200  1.0000
  C   C135      1.0  0.17760  0.22810  0.80800  1.0000
  C   C136      1.0  0.82240  0.22810  0.69200  1.0000
  H   H81       1.0  0.35090  0.27670  0.19500  1.0000
  H   H82       1.0  0.64910  0.27670  0.30500  1.0000
  H   H83       1.0  0.85090  0.77670  0.19500  1.0000
  H   H84       1.0  0.14910  0.77670  0.30500  1.0000
  H   H85       1.0  0.64910  0.72330  0.80500  1.0000
  H   H86       1.0  0.35090  0.72330  0.69500  1.0000
  H   H87       1.0  0.14910  0.22330  0.80500  1.0000
  H   H88       1.0  0.85090  0.22330  0.69500  1.0000
  C   C137      1.0  0.30431  0.15230  0.19420  1.0000
  C   C138      1.0  0.69569  0.15230  0.30580  1.0000
  C   C139      1.0  0.80431  0.65230  0.19420  1.0000
  C   C140      1.0  0.19569  0.65230  0.30580  1.0000
  C   C141      1.0  0.69569  0.84770  0.80580  1.0000
  C   C142      1.0  0.30431  0.84770  0.69420  1.0000
  C   C143      1.0  0.19569  0.34770  0.80580  1.0000
  C   C144      1.0  0.80431  0.34770  0.69420  1.0000
  C   C145      1.0  0.26250  0.14680  0.19360  1.0000
  C   C146      1.0  0.73750  0.14680  0.30640  1.0000
  C   C147      1.0  0.76250  0.64680  0.19360  1.0000
  C   C148      1.0  0.23750  0.64680  0.30640  1.0000
  C   C149      1.0  0.73750  0.85320  0.80640  1.0000
  C   C150      1.0  0.26250  0.85320  0.69360  1.0000
  C   C151      1.0  0.23750  0.35320  0.80640  1.0000
  C   C152      1.0  0.76250  0.35320  0.69360  1.0000
  H   H89       1.0  0.25040  0.06660  0.19600  1.0000
  H   H90       1.0  0.74960  0.06660  0.30400  1.0000
  H   H91       1.0  0.75040  0.56660  0.19600  1.0000
  H   H92       1.0  0.24960  0.56660  0.30400  1.0000
  H   H93       1.0  0.74960  0.93340  0.80400  1.0000
  H   H94       1.0  0.25040  0.93340  0.69600  1.0000
  H   H95       1.0  0.24960  0.43340  0.80400  1.0000
  H   H96       1.0  0.75040  0.43340  0.69600  1.0000
  C   C153      1.0  0.31830  0.51590  0.18620  1.0000
  C   C154      1.0  0.68170  0.51590  0.31380  1.0000
  C   C155      1.0  0.81830  0.01590  0.18620  1.0000
  C   C156      1.0  0.18170  0.01590  0.31380  1.0000
  C   C157      1.0  0.68170  0.48410  0.81380  1.0000
  C   C158      1.0  0.31830  0.48410  0.68620  1.0000
  C   C159      1.0  0.18170  0.98410  0.81380  1.0000
  C   C160      1.0  0.81830  0.98410  0.68620  1.0000
  C   C161      1.0  0.32840  0.02640  0.19820  1.0000
  C   C162      1.0  0.67160  0.02640  0.30180  1.0000
  C   C163      1.0  0.82840  0.52640  0.19820  1.0000
  C   C164      1.0  0.17160  0.52640  0.30180  1.0000
  C   C165      1.0  0.67160  0.97360  0.80180  1.0000
  C   C166      1.0  0.32840  0.97360  0.69820  1.0000
  C   C167      1.0  0.17160  0.47360  0.80180  1.0000
  C   C168      1.0  0.82840  0.47360  0.69820  1.0000
  Cd  Cd1       1.0  0.85407  0.26339  0.20525  1.0000
  Cd  Cd2       1.0  0.14593  0.26339  0.29475  1.0000
  Cd  Cd3       1.0  0.35407  0.76339  0.20525  1.0000
  Cd  Cd4       1.0  0.64593  0.76339  0.29475  1.0000
  Cd  Cd5       1.0  0.14593  0.73661  0.79475  1.0000
  Cd  Cd6       1.0  0.85407  0.73661  0.70525  1.0000
  Cd  Cd7       1.0  0.64593  0.23661  0.79475  1.0000
  Cd  Cd8       1.0  0.35407  0.23661  0.70525  1.0000
  N   N1        1.0  0.04883  0.28770  0.13290  1.0000
  N   N2        1.0  0.95117  0.28770  0.36710  1.0000
  N   N3        1.0  0.54883  0.78770  0.13290  1.0000
  N   N4        1.0  0.45117  0.78770  0.36710  1.0000
  N   N5        1.0  0.95117  0.71230  0.86710  1.0000
  N   N6        1.0  0.04883  0.71230  0.63290  1.0000
  N   N7        1.0  0.45117  0.21230  0.86710  1.0000
  N   N8        1.0  0.54883  0.21230  0.63290  1.0000
  H   H97       1.0  0.05900  0.27170  0.17990  1.0000
  H   H98       1.0  0.94100  0.27170  0.32010  1.0000
  H   H99       1.0  0.55900  0.77170  0.17990  1.0000
  H   H100      1.0  0.44100  0.77170  0.32010  1.0000
  H   H101      1.0  0.94100  0.72830  0.82010  1.0000
  H   H102      1.0  0.05900  0.72830  0.67990  1.0000
  H   H103      1.0  0.44100  0.22830  0.82010  1.0000
  H   H104      1.0  0.55900  0.22830  0.67990  1.0000
  N   N9        1.0  0.06933  0.31360  0.03970  1.0000
  N   N10       1.0  0.93067  0.31360  0.46030  1.0000
  N   N11       1.0  0.56933  0.81360  0.03970  1.0000
  N   N12       1.0  0.43067  0.81360  0.46030  1.0000
  N   N13       1.0  0.93067  0.68640  0.96030  1.0000
  N   N14       1.0  0.06933  0.68640  0.53970  1.0000
  N   N15       1.0  0.43067  0.18640  0.96030  1.0000
  N   N16       1.0  0.56933  0.18640  0.53970  1.0000
  N   N17       1.0  0.14914  0.29690  0.07660  1.0000
  N   N18       1.0  0.85086  0.29690  0.42340  1.0000
  N   N19       1.0  0.64914  0.79690  0.07660  1.0000
  N   N20       1.0  0.35086  0.79690  0.42340  1.0000
  N   N21       1.0  0.85086  0.70310  0.92340  1.0000
  N   N22       1.0  0.14914  0.70310  0.57660  1.0000
  N   N23       1.0  0.35086  0.20310  0.92340  1.0000
  N   N24       1.0  0.64914  0.20310  0.57660  1.0000
  N   N25       1.0  0.12456  0.27130  0.16840  1.0000
  N   N26       1.0  0.87544  0.27130  0.33160  1.0000
  N   N27       1.0  0.62456  0.77130  0.16840  1.0000
  N   N28       1.0  0.37544  0.77130  0.33160  1.0000
  N   N29       1.0  0.87544  0.72870  0.83160  1.0000
  N   N30       1.0  0.12456  0.72870  0.66840  1.0000
  N   N31       1.0  0.37544  0.22870  0.83160  1.0000
  N   N32       1.0  0.62456  0.22870  0.66840  1.0000
  N   N33       1.0  0.09430  0.34310  0.95370  1.0000
  N   N34       1.0  0.90570  0.34310  0.54630  1.0000
  N   N35       1.0  0.59430  0.84310  0.95370  1.0000
  N   N36       1.0  0.40570  0.84310  0.54630  1.0000
  N   N37       1.0  0.90570  0.65690  0.04630  1.0000
  N   N38       1.0  0.09430  0.65690  0.45370  1.0000
  N   N39       1.0  0.40570  0.15690  0.04630  1.0000
  N   N40       1.0  0.59430  0.15690  0.45370  1.0000
  N   N41       1.0  0.19950  0.25050  0.19870  1.0000
  N   N42       1.0  0.80050  0.25050  0.30130  1.0000
  N   N43       1.0  0.69950  0.75050  0.19870  1.0000
  N   N44       1.0  0.30050  0.75050  0.30130  1.0000
  N   N45       1.0  0.80050  0.74950  0.80130  1.0000
  N   N46       1.0  0.19950  0.74950  0.69870  1.0000
  N   N47       1.0  0.30050  0.24950  0.80130  1.0000
  N   N48       1.0  0.69950  0.24950  0.69870  1.0000
  H   H105      1.0  0.20380  0.22780  0.24230  1.0000
  H   H106      1.0  0.79620  0.22780  0.25770  1.0000
  H   H107      1.0  0.70380  0.72780  0.24230  1.0000
  H   H108      1.0  0.29620  0.72780  0.25770  1.0000
  H   H109      1.0  0.79620  0.77220  0.75770  1.0000
  H   H110      1.0  0.20380  0.77220  0.74230  1.0000
  H   H111      1.0  0.29620  0.27220  0.75770  1.0000
  H   H112      1.0  0.70380  0.27220  0.74230  1.0000
  O   O1        1.0  0.92627  0.26900  0.20680  1.0000
  O   O2        1.0  0.07373  0.26900  0.29320  1.0000
  O   O3        1.0  0.42627  0.76900  0.20680  1.0000
  O   O4        1.0  0.57373  0.76900  0.29320  1.0000
  O   O5        1.0  0.07373  0.73100  0.79320  1.0000
  O   O6        1.0  0.92627  0.73100  0.70680  1.0000
  O   O7        1.0  0.57373  0.23100  0.79320  1.0000
  O   O8        1.0  0.42627  0.23100  0.70680  1.0000
  O   O9        1.0  0.86173  0.27720  0.09940  1.0000
  O   O10       1.0  0.13827  0.27720  0.40060  1.0000
  O   O11       1.0  0.36173  0.77720  0.09940  1.0000
  O   O12       1.0  0.63827  0.77720  0.40060  1.0000
  O   O13       1.0  0.13827  0.72280  0.90060  1.0000
  O   O14       1.0  0.86173  0.72280  0.59940  1.0000
  O   O15       1.0  0.63827  0.22280  0.90060  1.0000
  O   O16       1.0  0.36173  0.22280  0.59940  1.0000
  O   O17       1.0  0.86172  0.41050  0.86720  1.0000
  O   O18       1.0  0.13828  0.41050  0.63280  1.0000
  O   O19       1.0  0.36172  0.91050  0.86720  1.0000
  O   O20       1.0  0.63828  0.91050  0.63280  1.0000
  O   O21       1.0  0.13828  0.58950  0.13280  1.0000
  O   O22       1.0  0.86172  0.58950  0.36720  1.0000
  O   O23       1.0  0.63828  0.08950  0.13280  1.0000
  O   O24       1.0  0.36172  0.08950  0.36720  1.0000
  O   O25       1.0  0.92616  0.39100  0.86150  1.0000
  O   O26       1.0  0.07384  0.39100  0.63850  1.0000
  O   O27       1.0  0.42616  0.89100  0.86150  1.0000
  O   O28       1.0  0.57384  0.89100  0.63850  1.0000
  O   O29       1.0  0.07384  0.60900  0.13850  1.0000
  O   O30       1.0  0.92616  0.60900  0.36150  1.0000
  O   O31       1.0  0.57384  0.10900  0.13850  1.0000
  O   O32       1.0  0.42616  0.10900  0.36150  1.0000
  H   H113      1.0  0.91220  0.43450  0.82310  1.0000
  H   H114      1.0  0.08780  0.43450  0.67690  1.0000
  H   H115      1.0  0.41220  0.93450  0.82310  1.0000
  H   H116      1.0  0.58780  0.93450  0.67690  1.0000
  H   H117      1.0  0.08780  0.56550  0.17690  1.0000
  H   H118      1.0  0.91220  0.56550  0.32310  1.0000
  H   H119      1.0  0.58780  0.06550  0.17690  1.0000
  H   H120      1.0  0.41220  0.06550  0.32310  1.0000
  O   O33       1.0  0.29370  0.61600  0.17220  1.0000
  O   O34       1.0  0.70630  0.61600  0.32780  1.0000
  O   O35       1.0  0.79370  0.11600  0.17220  1.0000
  O   O36       1.0  0.20630  0.11600  0.32780  1.0000
  O   O37       1.0  0.70630  0.38400  0.82780  1.0000
  O   O38       1.0  0.29370  0.38400  0.67220  1.0000
  O   O39       1.0  0.20630  0.88400  0.82780  1.0000
  O   O40       1.0  0.79370  0.88400  0.67220  1.0000
  O   O41       1.0  0.35932  0.52340  0.20270  1.0000
  O   O42       1.0  0.64068  0.52340  0.29730  1.0000
  O   O43       1.0  0.85932  0.02340  0.20270  1.0000
  O   O44       1.0  0.14068  0.02340  0.29730  1.0000
  O   O45       1.0  0.64068  0.47660  0.79730  1.0000
  O   O46       1.0  0.35932  0.47660  0.70270  1.0000
  O   O47       1.0  0.14068  0.97660  0.79730  1.0000
  O   O48       1.0  0.85932  0.97660  0.70270  1.0000
  O   O49       1.0  0.37047  0.02390  0.22370  1.0000
  O   O50       1.0  0.62953  0.02390  0.27630  1.0000
  O   O51       1.0  0.87047  0.52390  0.22370  1.0000
  O   O52       1.0  0.12953  0.52390  0.27630  1.0000
  O   O53       1.0  0.62953  0.97610  0.77630  1.0000
  O   O54       1.0  0.37047  0.97610  0.72370  1.0000
  O   O55       1.0  0.12953  0.47610  0.77630  1.0000
  O   O56       1.0  0.87047  0.47610  0.72370  1.0000
  O   O57       1.0  0.30353  0.92640  0.17390  1.0000
  O   O58       1.0  0.69647  0.92640  0.32610  1.0000
  O   O59       1.0  0.80353  0.42640  0.17390  1.0000
  O   O60       1.0  0.19647  0.42640  0.32610  1.0000
  O   O61       1.0  0.69647  0.07360  0.82610  1.0000
  O   O62       1.0  0.30353  0.07360  0.67390  1.0000
  O   O63       1.0  0.19647  0.57360  0.82610  1.0000
  O   O64       1.0  0.80353  0.57360  0.67390  1.0000
