data_image0
_chemical_formula_structural       Bi2N4O16C20H24
_chemical_formula_sum              "Bi2 N4 O16 C20 H24"
_cell_length_a       8.6
_cell_length_b       8.91
_cell_length_c       12.26
_cell_angle_alpha    81.19
_cell_angle_beta     78.77
_cell_angle_gamma    69.01

_space_group_name_H-M_alt    "P 1"
_space_group_IT_number       1

loop_
  _space_group_symop_operation_xyz
  'x, y, z'

loop_
  _atom_site_type_symbol
  _atom_site_label
  _atom_site_symmetry_multiplicity
  _atom_site_fract_x
  _atom_site_fract_y
  _atom_site_fract_z
  _atom_site_occupancy
  Bi  Bi1       1.0  0.48790  0.22510  0.38230  1.0000
  Bi  Bi2       1.0  0.51210  0.77490  0.61770  1.0000
  N   N1        1.0  0.21900  0.22000  0.34670  1.0000
  N   N2        1.0  0.78100  0.78000  0.65330  1.0000
  N   N3        1.0  0.36200  0.47680  0.27010  1.0000
  N   N4        1.0  0.63800  0.52320  0.72990  1.0000
  O   O1        1.0  0.52500  0.08700  0.22240  1.0000
  O   O2        1.0  0.47500  0.91300  0.77760  1.0000
  O   O3        1.0  0.43600  0.92200  0.15180  1.0000
  O   O4        1.0  0.56400  0.07800  0.84820  1.0000
  O   O5        1.0  0.33700  0.09100  0.54020  1.0000
  O   O6        1.0  0.66300  0.90900  0.45980  1.0000
  O   O7        1.0  0.07800  0.13400  0.63610  1.0000
  O   O8        1.0  0.92200  0.86600  0.36390  1.0000
  O   O9        1.0  0.31900  0.44300  0.49240  1.0000
  O   O10       1.0  0.68100  0.55700  0.50760  1.0000
  O   O11       1.0  0.30800  0.69400  0.50790  1.0000
  O   O12       1.0  0.69200  0.30600  0.49210  1.0000
  O   O13       1.0  0.69600  0.29900  0.23710  1.0000
  O   O14       1.0  0.30400  0.70100  0.76290  1.0000
  O   O15       1.0  0.73700  0.43400  0.07240  1.0000
  O   O16       1.0  0.26300  0.56600  0.92760  1.0000
  C   C1        1.0  0.41700  0.01800  0.21970  1.0000
  C   C2        1.0  0.58300  0.98200  0.78030  1.0000
  C   C3        1.0  0.26200  0.05800  0.30680  1.0000
  C   C4        1.0  0.73800  0.94200  0.69320  1.0000
  C   C5        1.0  0.17600  0.14600  0.55180  1.0000
  C   C6        1.0  0.82400  0.85400  0.44820  1.0000
  C   C7        1.0  0.09600  0.23800  0.45050  1.0000
  C   C8        1.0  0.90400  0.76200  0.54950  1.0000
  C   C9        1.0  0.32900  0.58000  0.45390  1.0000
  C   C10       1.0  0.67100  0.42000  0.54610  1.0000
  C   C11       1.0  0.37200  0.60700  0.32780  1.0000
  C   C12       1.0  0.62800  0.39300  0.67220  1.0000
  C   C13       1.0  0.64500  0.39900  0.15490  1.0000
  C   C14       1.0  0.35500  0.60100  0.84510  1.0000
  C   C15       1.0  0.45600  0.47600  0.15620  1.0000
  C   C16       1.0  0.54400  0.52400  0.84380  1.0000
  C   C17       1.0  0.15700  0.34600  0.25470  1.0000
  C   C18       1.0  0.84300  0.65400  0.74530  1.0000
  C   C19       1.0  0.18000  0.50200  0.26930  1.0000
  C   C20       1.0  0.82000  0.49800  0.73070  1.0000
  H   H1        1.0  0.28000  0.98000  0.37000  1.0000
  H   H2        1.0  0.72000  0.02000  0.63000  1.0000
  H   H3        1.0  0.17000  0.06000  0.28000  1.0000
  H   H4        1.0  0.83000  0.94000  0.72000  1.0000
  H   H5        1.0  0.05000  0.35000  0.46000  1.0000
  H   H6        1.0  0.95000  0.65000  0.54000  1.0000
  H   H7        1.0  0.01000  0.20000  0.44100  1.0000
  H   H8        1.0  0.99000  0.80000  0.55900  1.0000
  H   H9        1.0  0.48000  0.61000  0.31100  1.0000
  H   H10       1.0  0.52000  0.39000  0.68900  1.0000
  H   H11       1.0  0.29000  0.71000  0.30100  1.0000
  H   H12       1.0  0.71000  0.29000  0.69900  1.0000
  H   H13       1.0  0.42000  0.41000  0.11300  1.0000
  H   H14       1.0  0.58000  0.59000  0.88700  1.0000
  H   H15       1.0  0.43000  0.58000  0.12300  1.0000
  H   H16       1.0  0.57000  0.42000  0.87700  1.0000
  H   H17       1.0  0.22000  0.31000  0.18500  1.0000
  H   H18       1.0  0.78000  0.69000  0.81500  1.0000
  H   H19       1.0  0.04000  0.37000  0.25500  1.0000
  H   H20       1.0  0.96000  0.63000  0.74500  1.0000
  H   H21       1.0  0.12000  0.54000  0.33800  1.0000
  H   H22       1.0  0.88000  0.46000  0.66200  1.0000
  H   H23       1.0  0.14000  0.58000  0.20800  1.0000
  H   H24       1.0  0.86000  0.42000  0.79200  1.0000
