data_image0
_chemical_formula_structural       W48B4Cu4K4O160N16C8H8C8H8C8H8C16H8C8H8
_chemical_formula_sum              "W48 B4 Cu4 K4 O160 N16 C48 H40"
_cell_length_a       24.691
_cell_length_b       10.6423
_cell_length_c       19.8951
_cell_angle_alpha    90
_cell_angle_beta     99.451
_cell_angle_gamma    90

_space_group_name_H-M_alt    "P 1"
_space_group_IT_number       1

loop_
  _space_group_symop_operation_xyz
  'x, y, z'

loop_
  _atom_site_type_symbol
  _atom_site_label
  _atom_site_symmetry_multiplicity
  _atom_site_fract_x
  _atom_site_fract_y
  _atom_site_fract_z
  _atom_site_occupancy
  W   W1        1.0  0.57704  0.98956  0.41441  1.0000
  W   W2        1.0  0.42296  0.98956  0.08559  1.0000
  W   W3        1.0  0.07704  0.48956  0.41441  1.0000
  W   W4        1.0  0.92296  0.48956  0.08559  1.0000
  W   W5        1.0  0.42296  0.01044  0.58559  1.0000
  W   W6        1.0  0.57704  0.01044  0.91441  1.0000
  W   W7        1.0  0.92296  0.51044  0.58559  1.0000
  W   W8        1.0  0.07704  0.51044  0.91441  1.0000
  W   W9        1.0  0.38199  0.01258  0.32778  1.0000
  W   W10       1.0  0.61801  0.01258  0.17222  1.0000
  W   W11       1.0  0.88199  0.51258  0.32778  1.0000
  W   W12       1.0  0.11801  0.51258  0.17222  1.0000
  W   W13       1.0  0.61801  0.98742  0.67222  1.0000
  W   W14       1.0  0.38199  0.98742  0.82778  1.0000
  W   W15       1.0  0.11801  0.48742  0.67222  1.0000
  W   W16       1.0  0.88199  0.48742  0.82778  1.0000
  W   W17       1.0  0.39800  0.22657  0.21087  1.0000
  W   W18       1.0  0.60200  0.22657  0.28913  1.0000
  W   W19       1.0  0.89800  0.72657  0.21087  1.0000
  W   W20       1.0  0.10200  0.72657  0.28913  1.0000
  W   W21       1.0  0.60200  0.77343  0.78913  1.0000
  W   W22       1.0  0.39800  0.77343  0.71087  1.0000
  W   W23       1.0  0.10200  0.27343  0.78913  1.0000
  W   W24       1.0  0.89800  0.27343  0.71087  1.0000
  W   W25       1.0  0.39948  0.77584  0.19905  1.0000
  W   W26       1.0  0.60052  0.77584  0.30095  1.0000
  W   W27       1.0  0.89948  0.27584  0.19905  1.0000
  W   W28       1.0  0.10052  0.27584  0.30095  1.0000
  W   W29       1.0  0.60052  0.22416  0.80095  1.0000
  W   W30       1.0  0.39948  0.22416  0.69905  1.0000
  W   W31       1.0  0.10052  0.72416  0.80095  1.0000
  W   W32       1.0  0.89948  0.72416  0.69905  1.0000
  W   W33       1.0  0.48533  0.76641  0.36842  1.0000
  W   W34       1.0  0.51467  0.76641  0.13158  1.0000
  W   W35       1.0  0.98533  0.26641  0.36842  1.0000
  W   W36       1.0  0.01467  0.26641  0.13158  1.0000
  W   W37       1.0  0.51467  0.23359  0.63158  1.0000
  W   W38       1.0  0.48533  0.23359  0.86842  1.0000
  W   W39       1.0  0.01467  0.73359  0.63158  1.0000
  W   W40       1.0  0.98533  0.73359  0.86842  1.0000
  W   W41       1.0  0.47570  0.23647  0.36410  1.0000
  W   W42       1.0  0.52430  0.23647  0.13590  1.0000
  W   W43       1.0  0.97570  0.73647  0.36410  1.0000
  W   W44       1.0  0.02430  0.73647  0.13590  1.0000
  W   W45       1.0  0.52430  0.76353  0.63590  1.0000
  W   W46       1.0  0.47570  0.76353  0.86410  1.0000
  W   W47       1.0  0.02430  0.26353  0.63590  1.0000
  W   W48       1.0  0.97570  0.26353  0.86410  1.0000
  B   B1        1.0  0.50000  0.00670  0.25000  1.0000
  B   B2        1.0  0.00000  0.50670  0.25000  1.0000
  B   B3        1.0  0.50000  0.99330  0.75000  1.0000
  B   B4        1.0  0.00000  0.49330  0.75000  1.0000
  Cu  Cu1       1.0  0.50000  0.50000  0.50000  1.0000
  Cu  Cu2       1.0  0.50000  0.50000  0.00000  1.0000
  Cu  Cu3       1.0  0.00000  0.00000  0.50000  1.0000
  Cu  Cu4       1.0  0.00000  0.00000  0.00000  1.0000
  K   K1        1.0  0.50000  0.50150  0.25000  1.0000
  K   K2        1.0  0.00000  0.00150  0.25000  1.0000
  K   K3        1.0  0.50000  0.49850  0.75000  1.0000
  K   K4        1.0  0.00000  0.99850  0.75000  1.0000
  O   O1        1.0  0.37540  0.86370  0.11680  1.0000
  O   O2        1.0  0.62460  0.86370  0.38320  1.0000
  O   O3        1.0  0.87540  0.36370  0.11680  1.0000
  O   O4        1.0  0.12460  0.36370  0.38320  1.0000
  O   O5        1.0  0.62460  0.13630  0.88320  1.0000
  O   O6        1.0  0.37540  0.13630  0.61680  1.0000
  O   O7        1.0  0.12460  0.63630  0.88320  1.0000
  O   O8        1.0  0.87540  0.63630  0.61680  1.0000
  O   O9        1.0  0.61080  0.10620  0.35890  1.0000
  O   O10       1.0  0.38920  0.10620  0.14110  1.0000
  O   O11       1.0  0.11080  0.60620  0.35890  1.0000
  O   O12       1.0  0.88920  0.60620  0.14110  1.0000
  O   O13       1.0  0.38920  0.89380  0.64110  1.0000
  O   O14       1.0  0.61080  0.89380  0.85890  1.0000
  O   O15       1.0  0.88920  0.39380  0.64110  1.0000
  O   O16       1.0  0.11080  0.39380  0.85890  1.0000
  O   O17       1.0  0.61410  0.01910  0.49330  1.0000
  O   O18       1.0  0.38590  0.01910  0.00670  1.0000
  O   O19       1.0  0.11410  0.51910  0.49330  1.0000
  O   O20       1.0  0.88590  0.51910  0.00670  1.0000
  O   O21       1.0  0.38590  0.98090  0.50670  1.0000
  O   O22       1.0  0.61410  0.98090  0.99330  1.0000
  O   O23       1.0  0.88590  0.48090  0.50670  1.0000
  O   O24       1.0  0.11410  0.48090  0.99330  1.0000
  O   O25       1.0  0.52010  0.10970  0.41080  1.0000
  O   O26       1.0  0.47990  0.10970  0.08920  1.0000
  O   O27       1.0  0.02010  0.60970  0.41080  1.0000
  O   O28       1.0  0.97990  0.60970  0.08920  1.0000
  O   O29       1.0  0.47990  0.89030  0.58920  1.0000
  O   O30       1.0  0.52010  0.89030  0.91080  1.0000
  O   O31       1.0  0.97990  0.39030  0.58920  1.0000
  O   O32       1.0  0.02010  0.39030  0.91080  1.0000
  O   O33       1.0  0.45830  0.08320  0.27690  1.0000
  O   O34       1.0  0.54170  0.08320  0.22310  1.0000
  O   O35       1.0  0.95830  0.58320  0.27690  1.0000
  O   O36       1.0  0.04170  0.58320  0.22310  1.0000
  O   O37       1.0  0.54170  0.91680  0.72310  1.0000
  O   O38       1.0  0.45830  0.91680  0.77690  1.0000
  O   O39       1.0  0.04170  0.41680  0.72310  1.0000
  O   O40       1.0  0.95830  0.41680  0.77690  1.0000
  O   O41       1.0  0.43030  0.89250  0.37240  1.0000
  O   O42       1.0  0.56970  0.89250  0.12760  1.0000
  O   O43       1.0  0.93030  0.39250  0.37240  1.0000
  O   O44       1.0  0.06970  0.39250  0.12760  1.0000
  O   O45       1.0  0.56970  0.10750  0.62760  1.0000
  O   O46       1.0  0.43030  0.10750  0.87240  1.0000
  O   O47       1.0  0.06970  0.60750  0.62760  1.0000
  O   O48       1.0  0.93030  0.60750  0.87240  1.0000
  O   O49       1.0  0.46450  0.64800  0.41820  1.0000
  O   O50       1.0  0.53550  0.64800  0.08180  1.0000
  O   O51       1.0  0.96450  0.14800  0.41820  1.0000
  O   O52       1.0  0.03550  0.14800  0.08180  1.0000
  O   O53       1.0  0.53550  0.35200  0.58180  1.0000
  O   O54       1.0  0.46450  0.35200  0.91820  1.0000
  O   O55       1.0  0.03550  0.85200  0.58180  1.0000
  O   O56       1.0  0.96450  0.85200  0.91820  1.0000
  O   O57       1.0  0.48180  0.35210  0.42540  1.0000
  O   O58       1.0  0.51820  0.35210  0.07460  1.0000
  O   O59       1.0  0.98180  0.85210  0.42540  1.0000
  O   O60       1.0  0.01820  0.85210  0.07460  1.0000
  O   O61       1.0  0.51820  0.64790  0.57460  1.0000
  O   O62       1.0  0.48180  0.64790  0.92540  1.0000
  O   O63       1.0  0.01820  0.14790  0.57460  1.0000
  O   O64       1.0  0.98180  0.14790  0.92540  1.0000
  O   O65       1.0  0.35140  0.33900  0.17790  1.0000
  O   O66       1.0  0.64860  0.33900  0.32210  1.0000
  O   O67       1.0  0.85140  0.83900  0.17790  1.0000
  O   O68       1.0  0.14860  0.83900  0.32210  1.0000
  O   O69       1.0  0.64860  0.66100  0.82210  1.0000
  O   O70       1.0  0.35140  0.66100  0.67790  1.0000
  O   O71       1.0  0.14860  0.16100  0.82210  1.0000
  O   O72       1.0  0.85140  0.16100  0.67790  1.0000
  O   O73       1.0  0.37130  0.89900  0.25110  1.0000
  O   O74       1.0  0.62870  0.89900  0.24890  1.0000
  O   O75       1.0  0.87130  0.39900  0.25110  1.0000
  O   O76       1.0  0.12870  0.39900  0.24890  1.0000
  O   O77       1.0  0.62870  0.10100  0.74890  1.0000
  O   O78       1.0  0.37130  0.10100  0.75110  1.0000
  O   O79       1.0  0.12870  0.60100  0.74890  1.0000
  O   O80       1.0  0.87130  0.60100  0.75110  1.0000
  O   O81       1.0  0.52790  0.92010  0.30820  1.0000
  O   O82       1.0  0.47210  0.92010  0.19180  1.0000
  O   O83       1.0  0.02790  0.42010  0.30820  1.0000
  O   O84       1.0  0.97210  0.42010  0.19180  1.0000
  O   O85       1.0  0.47210  0.07990  0.69180  1.0000
  O   O86       1.0  0.52790  0.07990  0.80820  1.0000
  O   O87       1.0  0.97210  0.57990  0.69180  1.0000
  O   O88       1.0  0.02790  0.57990  0.80820  1.0000
  O   O89       1.0  0.32330  0.98590  0.36060  1.0000
  O   O90       1.0  0.67670  0.98590  0.13940  1.0000
  O   O91       1.0  0.82330  0.48590  0.36060  1.0000
  O   O92       1.0  0.17670  0.48590  0.13940  1.0000
  O   O93       1.0  0.67670  0.01410  0.63940  1.0000
  O   O94       1.0  0.32330  0.01410  0.86060  1.0000
  O   O95       1.0  0.17670  0.51410  0.63940  1.0000
  O   O96       1.0  0.82330  0.51410  0.86060  1.0000
  O   O97       1.0  0.34900  0.66500  0.19350  1.0000
  O   O98       1.0  0.65100  0.66500  0.30650  1.0000
  O   O99       1.0  0.84900  0.16500  0.19350  1.0000
  O   O100      1.0  0.15100  0.16500  0.30650  1.0000
  O   O101      1.0  0.65100  0.33500  0.80650  1.0000
  O   O102      1.0  0.34900  0.33500  0.69350  1.0000
  O   O103      1.0  0.15100  0.83500  0.80650  1.0000
  O   O104      1.0  0.84900  0.83500  0.69350  1.0000
  O   O105      1.0  0.54780  0.68380  0.34500  1.0000
  O   O106      1.0  0.45220  0.68380  0.15500  1.0000
  O   O107      1.0  0.04780  0.18380  0.34500  1.0000
  O   O108      1.0  0.95220  0.18380  0.15500  1.0000
  O   O109      1.0  0.45220  0.31620  0.65500  1.0000
  O   O110      1.0  0.54780  0.31620  0.84500  1.0000
  O   O111      1.0  0.95220  0.81620  0.65500  1.0000
  O   O112      1.0  0.04780  0.81620  0.84500  1.0000
  O   O113      1.0  0.46300  0.28090  0.17660  1.0000
  O   O114      1.0  0.53700  0.28090  0.32340  1.0000
  O   O115      1.0  0.96300  0.78090  0.17660  1.0000
  O   O116      1.0  0.03700  0.78090  0.32340  1.0000
  O   O117      1.0  0.53700  0.71910  0.82340  1.0000
  O   O118      1.0  0.46300  0.71910  0.67660  1.0000
  O   O119      1.0  0.03700  0.21910  0.82340  1.0000
  O   O120      1.0  0.96300  0.21910  0.67660  1.0000
  O   O121      1.0  0.35090  0.14010  0.26200  1.0000
  O   O122      1.0  0.64910  0.14010  0.23800  1.0000
  O   O123      1.0  0.85090  0.64010  0.26200  1.0000
  O   O124      1.0  0.14910  0.64010  0.23800  1.0000
  O   O125      1.0  0.64910  0.85990  0.73800  1.0000
  O   O126      1.0  0.35090  0.85990  0.76200  1.0000
  O   O127      1.0  0.14910  0.35990  0.73800  1.0000
  O   O128      1.0  0.85090  0.35990  0.76200  1.0000
  O   O129      1.0  0.42850  0.32070  0.29310  1.0000
  O   O130      1.0  0.57150  0.32070  0.20690  1.0000
  O   O131      1.0  0.92850  0.82070  0.29310  1.0000
  O   O132      1.0  0.07150  0.82070  0.20690  1.0000
  O   O133      1.0  0.57150  0.67930  0.70690  1.0000
  O   O134      1.0  0.42850  0.67930  0.79310  1.0000
  O   O135      1.0  0.07150  0.17930  0.70690  1.0000
  O   O136      1.0  0.92850  0.17930  0.79310  1.0000
  O   O137      1.0  0.41340  0.14520  0.38570  1.0000
  O   O138      1.0  0.58660  0.14520  0.11430  1.0000
  O   O139      1.0  0.91340  0.64520  0.38570  1.0000
  O   O140      1.0  0.08660  0.64520  0.11430  1.0000
  O   O141      1.0  0.58660  0.85480  0.61430  1.0000
  O   O142      1.0  0.41340  0.85480  0.88570  1.0000
  O   O143      1.0  0.08660  0.35480  0.61430  1.0000
  O   O144      1.0  0.91340  0.35480  0.88570  1.0000
  O   O145      1.0  0.53170  0.85730  0.43860  1.0000
  O   O146      1.0  0.46830  0.85730  0.06140  1.0000
  O   O147      1.0  0.03170  0.35730  0.43860  1.0000
  O   O148      1.0  0.96830  0.35730  0.06140  1.0000
  O   O149      1.0  0.46830  0.14270  0.56140  1.0000
  O   O150      1.0  0.53170  0.14270  0.93860  1.0000
  O   O151      1.0  0.96830  0.64270  0.56140  1.0000
  O   O152      1.0  0.03170  0.64270  0.93860  1.0000
  O   O153      1.0  0.44500  0.71900  0.28280  1.0000
  O   O154      1.0  0.55500  0.71900  0.21720  1.0000
  O   O155      1.0  0.94500  0.21900  0.28280  1.0000
  O   O156      1.0  0.05500  0.21900  0.21720  1.0000
  O   O157      1.0  0.55500  0.28100  0.71720  1.0000
  O   O158      1.0  0.44500  0.28100  0.78280  1.0000
  O   O159      1.0  0.05500  0.78100  0.71720  1.0000
  O   O160      1.0  0.94500  0.78100  0.78280  1.0000
  N   N1        1.0  0.57270  0.52490  0.48000  1.0000
  N   N2        1.0  0.42730  0.52490  0.02000  1.0000
  N   N3        1.0  0.07270  0.02490  0.48000  1.0000
  N   N4        1.0  0.92730  0.02490  0.02000  1.0000
  N   N5        1.0  0.42730  0.47510  0.52000  1.0000
  N   N6        1.0  0.57270  0.47510  0.98000  1.0000
  N   N7        1.0  0.92730  0.97510  0.52000  1.0000
  N   N8        1.0  0.07270  0.97510  0.98000  1.0000
  N   N9        1.0  0.65520  0.60200  0.47470  1.0000
  N   N10       1.0  0.34480  0.60200  0.02530  1.0000
  N   N11       1.0  0.15520  0.10200  0.47470  1.0000
  N   N12       1.0  0.84480  0.10200  0.02530  1.0000
  N   N13       1.0  0.34480  0.39800  0.52530  1.0000
  N   N14       1.0  0.65520  0.39800  0.97470  1.0000
  N   N15       1.0  0.84480  0.89800  0.52530  1.0000
  N   N16       1.0  0.15520  0.89800  0.97470  1.0000
  C   C1        1.0  0.60630  0.62050  0.49550  1.0000
  C   C2        1.0  0.39370  0.62050  0.00450  1.0000
  C   C3        1.0  0.10630  0.12050  0.49550  1.0000
  C   C4        1.0  0.89370  0.12050  0.00450  1.0000
  C   C5        1.0  0.39370  0.37950  0.50450  1.0000
  C   C6        1.0  0.60630  0.37950  0.99550  1.0000
  C   C7        1.0  0.89370  0.87950  0.50450  1.0000
  C   C8        1.0  0.10630  0.87950  0.99550  1.0000
  H   H1        1.0  0.59740  0.69230  0.51800  1.0000
  H   H2        1.0  0.40260  0.69230  0.98200  1.0000
  H   H3        1.0  0.09740  0.19230  0.51800  1.0000
  H   H4        1.0  0.90260  0.19230  0.98200  1.0000
  H   H5        1.0  0.40260  0.30770  0.48200  1.0000
  H   H6        1.0  0.59740  0.30770  0.01800  1.0000
  H   H7        1.0  0.90260  0.80770  0.48200  1.0000
  H   H8        1.0  0.09740  0.80770  0.01800  1.0000
  C   C9        1.0  0.60270  0.43980  0.44890  1.0000
  C   C10       1.0  0.39730  0.43980  0.05110  1.0000
  C   C11       1.0  0.10270  0.93980  0.44890  1.0000
  C   C12       1.0  0.89730  0.93980  0.05110  1.0000
  C   C13       1.0  0.39730  0.56020  0.55110  1.0000
  C   C14       1.0  0.60270  0.56020  0.94890  1.0000
  C   C15       1.0  0.89730  0.06020  0.55110  1.0000
  C   C16       1.0  0.10270  0.06020  0.94890  1.0000
  H   H9        1.0  0.58980  0.36150  0.43280  1.0000
  H   H10       1.0  0.41020  0.36150  0.06720  1.0000
  H   H11       1.0  0.08980  0.86150  0.43280  1.0000
  H   H12       1.0  0.91020  0.86150  0.06720  1.0000
  H   H13       1.0  0.41020  0.63850  0.56720  1.0000
  H   H14       1.0  0.58980  0.63850  0.93280  1.0000
  H   H15       1.0  0.91020  0.13850  0.56720  1.0000
  H   H16       1.0  0.08980  0.13850  0.93280  1.0000
  C   C17       1.0  0.65210  0.48410  0.44510  1.0000
  C   C18       1.0  0.34790  0.48410  0.05490  1.0000
  C   C19       1.0  0.15210  0.98410  0.44510  1.0000
  C   C20       1.0  0.84790  0.98410  0.05490  1.0000
  C   C21       1.0  0.34790  0.51590  0.55490  1.0000
  C   C22       1.0  0.65210  0.51590  0.94510  1.0000
  C   C23       1.0  0.84790  0.01590  0.55490  1.0000
  C   C24       1.0  0.15210  0.01590  0.94510  1.0000
  H   H17       1.0  0.67950  0.44370  0.42620  1.0000
  H   H18       1.0  0.32050  0.44370  0.07380  1.0000
  H   H19       1.0  0.17950  0.94370  0.42620  1.0000
  H   H20       1.0  0.82050  0.94370  0.07380  1.0000
  H   H21       1.0  0.32050  0.55630  0.57380  1.0000
  H   H22       1.0  0.67950  0.55630  0.92620  1.0000
  H   H23       1.0  0.82050  0.05630  0.57380  1.0000
  H   H24       1.0  0.17950  0.05630  0.92620  1.0000
  C   C25       1.0  0.70280  0.68000  0.48670  1.0000
  C   C26       1.0  0.29720  0.68000  0.01330  1.0000
  C   C27       1.0  0.20280  0.18000  0.48670  1.0000
  C   C28       1.0  0.79720  0.18000  0.01330  1.0000
  C   C29       1.0  0.29720  0.32000  0.51330  1.0000
  C   C30       1.0  0.70280  0.32000  0.98670  1.0000
  C   C31       1.0  0.79720  0.82000  0.51330  1.0000
  C   C32       1.0  0.20280  0.82000  0.98670  1.0000
  C   C33       1.0  0.74270  0.66600  0.44640  1.0000
  C   C34       1.0  0.25730  0.66600  0.05360  1.0000
  C   C35       1.0  0.24270  0.16600  0.44640  1.0000
  C   C36       1.0  0.75730  0.16600  0.05360  1.0000
  C   C37       1.0  0.25730  0.33400  0.55360  1.0000
  C   C38       1.0  0.74270  0.33400  0.94640  1.0000
  C   C39       1.0  0.75730  0.83400  0.55360  1.0000
  C   C40       1.0  0.24270  0.83400  0.94640  1.0000
  H   H25       1.0  0.73720  0.61030  0.40990  1.0000
  H   H26       1.0  0.26280  0.61030  0.09010  1.0000
  H   H27       1.0  0.23720  0.11030  0.40990  1.0000
  H   H28       1.0  0.76280  0.11030  0.09010  1.0000
  H   H29       1.0  0.26280  0.38970  0.59010  1.0000
  H   H30       1.0  0.73720  0.38970  0.90990  1.0000
  H   H31       1.0  0.76280  0.88970  0.59010  1.0000
  H   H32       1.0  0.23720  0.88970  0.90990  1.0000
  C   C41       1.0  0.79030  0.73380  0.45980  1.0000
  C   C42       1.0  0.20970  0.73380  0.04020  1.0000
  C   C43       1.0  0.29030  0.23380  0.45980  1.0000
  C   C44       1.0  0.70970  0.23380  0.04020  1.0000
  C   C45       1.0  0.20970  0.26620  0.54020  1.0000
  C   C46       1.0  0.79030  0.26620  0.95980  1.0000
  C   C47       1.0  0.70970  0.76620  0.54020  1.0000
  C   C48       1.0  0.29030  0.76620  0.95980  1.0000
  H   H33       1.0  0.81780  0.72250  0.43360  1.0000
  H   H34       1.0  0.18220  0.72250  0.06640  1.0000
  H   H35       1.0  0.31780  0.22250  0.43360  1.0000
  H   H36       1.0  0.68220  0.22250  0.06640  1.0000
  H   H37       1.0  0.18220  0.27750  0.56640  1.0000
  H   H38       1.0  0.81780  0.27750  0.93360  1.0000
  H   H39       1.0  0.68220  0.77750  0.56640  1.0000
  H   H40       1.0  0.31780  0.77750  0.93360  1.0000
