data_image0
_chemical_formula_structural       Fe4C4H4O8C4H4C4O4Fe4C4H4Fe4C20H4C12H4C8H4C20H4C8H4C4H4C4H4C8H4C4H4C4H4C4O4C4H4O4C8H4O4C8O32
_chemical_formula_sum              "Fe12 C132 H60 O56"
_cell_length_a       12.6797
_cell_length_b       13.5123
_cell_length_c       23.948
_cell_angle_alpha    90
_cell_angle_beta     90
_cell_angle_gamma    90

_space_group_name_H-M_alt    "P 1"
_space_group_IT_number       1

loop_
  _space_group_symop_operation_xyz
  'x, y, z'

loop_
  _atom_site_type_symbol
  _atom_site_label
  _atom_site_symmetry_multiplicity
  _atom_site_fract_x
  _atom_site_fract_y
  _atom_site_fract_z
  _atom_site_occupancy
  Fe  Fe1       1.0  0.77182  0.89268  0.28741  1.0000
  Fe  Fe2       1.0  0.22818  0.39268  0.21259  1.0000
  Fe  Fe3       1.0  0.22818  0.10732  0.71259  1.0000
  Fe  Fe4       1.0  0.77182  0.60732  0.78741  1.0000
  C   C1        1.0  0.13770  0.89570  0.54150  1.0000
  C   C2        1.0  0.86230  0.39570  0.95850  1.0000
  C   C3        1.0  0.86230  0.10430  0.45850  1.0000
  C   C4        1.0  0.13770  0.60430  0.04150  1.0000
  H   H1        1.0  0.19340  0.89810  0.51500  1.0000
  H   H2        1.0  0.80660  0.39810  0.98500  1.0000
  H   H3        1.0  0.80660  0.10190  0.48500  1.0000
  H   H4        1.0  0.19340  0.60190  0.01500  1.0000
  O   O1        1.0  0.96620  0.82990  0.35570  1.0000
  O   O2        1.0  0.03380  0.32990  0.14430  1.0000
  O   O3        1.0  0.03380  0.17010  0.64430  1.0000
  O   O4        1.0  0.96620  0.67010  0.85570  1.0000
  O   O5        1.0  0.18220  0.94520  0.71350  1.0000
  O   O6        1.0  0.81780  0.44520  0.78650  1.0000
  O   O7        1.0  0.81780  0.05480  0.28650  1.0000
  O   O8        1.0  0.18220  0.55480  0.21350  1.0000
  C   C5        1.0  0.01780  0.87260  0.46460  1.0000
  C   C6        1.0  0.98220  0.37260  0.03540  1.0000
  C   C7        1.0  0.98220  0.12740  0.53540  1.0000
  C   C8        1.0  0.01780  0.62740  0.96460  1.0000
  H   H5        1.0  0.07570  0.87300  0.43950  1.0000
  H   H6        1.0  0.92430  0.37300  0.06050  1.0000
  H   H7        1.0  0.92430  0.12700  0.56050  1.0000
  H   H8        1.0  0.07570  0.62700  0.93950  1.0000
  C   C9        1.0  0.94880  0.88150  0.56000  1.0000
  C   C10       1.0  0.05120  0.38150  0.94000  1.0000
  C   C11       1.0  0.05120  0.11850  0.44000  1.0000
  C   C12       1.0  0.94880  0.61850  0.06000  1.0000
  O   O9        1.0  0.03480  0.86050  0.72790  1.0000
  O   O10       1.0  0.96520  0.36050  0.77210  1.0000
  O   O11       1.0  0.96520  0.13950  0.27210  1.0000
  O   O12       1.0  0.03480  0.63950  0.22790  1.0000
  Fe  Fe5       1.0  0.23213  0.58930  0.29448  1.0000
  Fe  Fe6       1.0  0.76787  0.08930  0.20552  1.0000
  Fe  Fe7       1.0  0.76787  0.41070  0.70552  1.0000
  Fe  Fe8       1.0  0.23213  0.91070  0.79448  1.0000
  C   C13       1.0  0.15630  0.90630  0.59830  1.0000
  C   C14       1.0  0.84370  0.40630  0.90170  1.0000
  C   C15       1.0  0.84370  0.09370  0.40170  1.0000
  C   C16       1.0  0.15630  0.59370  0.09830  1.0000
  H   H9        1.0  0.22590  0.91860  0.61120  1.0000
  H   H10       1.0  0.77410  0.41860  0.88880  1.0000
  H   H11       1.0  0.77410  0.08140  0.38880  1.0000
  H   H12       1.0  0.22590  0.58140  0.11120  1.0000
  Fe  Fe9       1.0  0.99975  0.73787  0.29146  1.0000
  Fe  Fe10      1.0  0.00025  0.23787  0.20854  1.0000
  Fe  Fe11      1.0  0.00025  0.26213  0.70854  1.0000
  Fe  Fe12      1.0  0.99975  0.76213  0.79146  1.0000
  C   C17       1.0  0.07050  0.89880  0.63830  1.0000
  C   C18       1.0  0.92950  0.39880  0.86170  1.0000
  C   C19       1.0  0.92950  0.10120  0.36170  1.0000
  C   C20       1.0  0.07050  0.60120  0.13830  1.0000
  C   C21       1.0  0.03610  0.88170  0.52560  1.0000
  C   C22       1.0  0.96390  0.38170  0.97440  1.0000
  C   C23       1.0  0.96390  0.11830  0.47440  1.0000
  C   C24       1.0  0.03610  0.61830  0.02560  1.0000
  C   C25       1.0  0.91450  0.86320  0.44410  1.0000
  C   C26       1.0  0.08550  0.36320  0.05590  1.0000
  C   C27       1.0  0.08550  0.13680  0.55590  1.0000
  C   C28       1.0  0.91450  0.63680  0.94410  1.0000
  C   C29       1.0  0.88740  0.85550  0.38560  1.0000
  C   C30       1.0  0.11260  0.35550  0.11440  1.0000
  C   C31       1.0  0.11260  0.14450  0.61440  1.0000
  C   C32       1.0  0.88740  0.64450  0.88560  1.0000
  C   C33       1.0  0.76790  0.49100  0.25150  1.0000
  C   C34       1.0  0.23210  0.99100  0.24850  1.0000
  C   C35       1.0  0.23210  0.50900  0.74850  1.0000
  C   C36       1.0  0.76790  0.00900  0.75150  1.0000
  H   H13       1.0  0.84280  0.49160  0.25100  1.0000
  H   H14       1.0  0.15720  0.99160  0.24900  1.0000
  H   H15       1.0  0.15720  0.50840  0.74900  1.0000
  H   H16       1.0  0.84280  0.00840  0.75100  1.0000
  C   C37       1.0  0.71380  0.40460  0.23780  1.0000
  C   C38       1.0  0.28620  0.90460  0.26220  1.0000
  C   C39       1.0  0.28620  0.59540  0.76220  1.0000
  C   C40       1.0  0.71380  0.09540  0.73780  1.0000
  C   C41       1.0  0.77090  0.31210  0.22300  1.0000
  C   C42       1.0  0.22910  0.81210  0.27700  1.0000
  C   C43       1.0  0.22910  0.68790  0.77700  1.0000
  C   C44       1.0  0.77090  0.18790  0.72300  1.0000
  C   C45       1.0  0.60160  0.40670  0.23270  1.0000
  C   C46       1.0  0.39840  0.90670  0.26730  1.0000
  C   C47       1.0  0.39840  0.59330  0.76730  1.0000
  C   C48       1.0  0.60160  0.09330  0.73270  1.0000
  H   H17       1.0  0.56480  0.35120  0.21810  1.0000
  H   H18       1.0  0.43520  0.85120  0.28190  1.0000
  H   H19       1.0  0.43520  0.64880  0.78190  1.0000
  H   H20       1.0  0.56480  0.14880  0.71810  1.0000
  C   C49       1.0  0.77030  0.66950  0.27820  1.0000
  C   C50       1.0  0.22970  0.16950  0.22180  1.0000
  C   C51       1.0  0.22970  0.33050  0.72180  1.0000
  C   C52       1.0  0.77030  0.83050  0.77820  1.0000
  C   C53       1.0  0.84160  0.87740  0.54000  1.0000
  C   C54       1.0  0.15840  0.37740  0.96000  1.0000
  C   C55       1.0  0.15840  0.12260  0.46000  1.0000
  C   C56       1.0  0.84160  0.62260  0.04000  1.0000
  H   H21       1.0  0.78290  0.88220  0.56450  1.0000
  H   H22       1.0  0.21710  0.38220  0.93550  1.0000
  H   H23       1.0  0.21710  0.11780  0.43550  1.0000
  H   H24       1.0  0.78290  0.61780  0.06450  1.0000
  C   C57       1.0  0.94110  0.87820  0.14090  1.0000
  C   C58       1.0  0.05890  0.37820  0.35910  1.0000
  C   C59       1.0  0.05890  0.12180  0.85910  1.0000
  C   C60       1.0  0.94110  0.62180  0.64090  1.0000
  C   C61       1.0  0.07350  0.87270  0.94130  1.0000
  C   C62       1.0  0.92650  0.37270  0.55870  1.0000
  C   C63       1.0  0.92650  0.12730  0.05870  1.0000
  C   C64       1.0  0.07350  0.62730  0.44130  1.0000
  C   C65       1.0  0.95240  0.87760  0.03590  1.0000
  C   C66       1.0  0.04760  0.37760  0.46410  1.0000
  C   C67       1.0  0.04760  0.12240  0.96410  1.0000
  C   C68       1.0  0.95240  0.62240  0.53590  1.0000
  C   C69       1.0  0.09820  0.90320  0.69730  1.0000
  C   C70       1.0  0.90180  0.40320  0.80270  1.0000
  C   C71       1.0  0.90180  0.09680  0.30270  1.0000
  C   C72       1.0  0.09820  0.59680  0.19730  1.0000
  C   C73       1.0  0.96920  0.89080  0.61940  1.0000
  C   C74       1.0  0.03080  0.39080  0.88060  1.0000
  C   C75       1.0  0.03080  0.10920  0.38060  1.0000
  C   C76       1.0  0.96920  0.60920  0.11940  1.0000
  H   H25       1.0  0.91220  0.89130  0.64510  1.0000
  H   H26       1.0  0.08780  0.39130  0.85490  1.0000
  H   H27       1.0  0.08780  0.10870  0.35490  1.0000
  H   H28       1.0  0.91220  0.60870  0.14510  1.0000
  C   C77       1.0  0.06200  0.86400  0.04410  1.0000
  C   C78       1.0  0.93800  0.36400  0.45590  1.0000
  C   C79       1.0  0.93800  0.13600  0.95590  1.0000
  C   C80       1.0  0.06200  0.63600  0.54410  1.0000
  C   C81       1.0  0.12270  0.86260  0.98860  1.0000
  C   C82       1.0  0.87730  0.36260  0.51140  1.0000
  C   C83       1.0  0.87730  0.13740  0.01140  1.0000
  C   C84       1.0  0.12270  0.63740  0.48860  1.0000
  H   H29       1.0  0.19710  0.85410  0.98880  1.0000
  H   H30       1.0  0.80290  0.35410  0.51120  1.0000
  H   H31       1.0  0.80290  0.14590  0.01120  1.0000
  H   H32       1.0  0.19710  0.64590  0.48880  1.0000
  C   C85       1.0  0.96270  0.88000  0.93960  1.0000
  C   C86       1.0  0.03730  0.38000  0.56040  1.0000
  C   C87       1.0  0.03730  0.12000  0.06040  1.0000
  C   C88       1.0  0.96270  0.62000  0.43960  1.0000
  H   H33       1.0  0.92890  0.88180  0.90420  1.0000
  H   H34       1.0  0.07110  0.38180  0.59580  1.0000
  H   H35       1.0  0.07110  0.11820  0.09580  1.0000
  H   H36       1.0  0.92890  0.61820  0.40420  1.0000
  C   C89       1.0  0.90100  0.88440  0.98700  1.0000
  C   C90       1.0  0.09900  0.38440  0.51300  1.0000
  C   C91       1.0  0.09900  0.11560  0.01300  1.0000
  C   C92       1.0  0.90100  0.61560  0.48700  1.0000
  H   H37       1.0  0.82660  0.89190  0.98510  1.0000
  H   H38       1.0  0.17340  0.39190  0.51490  1.0000
  H   H39       1.0  0.17340  0.10810  0.01490  1.0000
  H   H40       1.0  0.82660  0.60810  0.48510  1.0000
  C   C93       1.0  0.13110  0.87560  0.88640  1.0000
  C   C94       1.0  0.86890  0.37560  0.61360  1.0000
  C   C95       1.0  0.86890  0.12440  0.11360  1.0000
  C   C96       1.0  0.13110  0.62440  0.38640  1.0000
  C   C97       1.0  0.10980  0.85410  0.09280  1.0000
  C   C98       1.0  0.89020  0.35410  0.40720  1.0000
  C   C99       1.0  0.89020  0.14590  0.90720  1.0000
  C   C100      1.0  0.10980  0.64590  0.59280  1.0000
  H   H41       1.0  0.18390  0.84430  0.09450  1.0000
  H   H42       1.0  0.81610  0.34430  0.40550  1.0000
  H   H43       1.0  0.81610  0.15570  0.90550  1.0000
  H   H44       1.0  0.18390  0.65570  0.59450  1.0000
  C   C101      1.0  0.88790  0.88360  0.08930  1.0000
  C   C102      1.0  0.11210  0.38360  0.41070  1.0000
  C   C103      1.0  0.11210  0.11640  0.91070  1.0000
  C   C104      1.0  0.88790  0.61640  0.58930  1.0000
  H   H45       1.0  0.81340  0.89090  0.08790  1.0000
  H   H46       1.0  0.18660  0.39090  0.41210  1.0000
  H   H47       1.0  0.18660  0.10910  0.91210  1.0000
  H   H48       1.0  0.81340  0.60910  0.58790  1.0000
  C   C105      1.0  0.05330  0.85790  0.13920  1.0000
  C   C106      1.0  0.94670  0.35790  0.36080  1.0000
  C   C107      1.0  0.94670  0.14210  0.86080  1.0000
  C   C108      1.0  0.05330  0.64210  0.63920  1.0000
  H   H49       1.0  0.08850  0.84660  0.17360  1.0000
  H   H50       1.0  0.91150  0.34660  0.32640  1.0000
  H   H51       1.0  0.91150  0.15340  0.82640  1.0000
  H   H52       1.0  0.08850  0.65340  0.67360  1.0000
  C   C109      1.0  0.88780  0.88490  0.19570  1.0000
  C   C110      1.0  0.11220  0.38490  0.30430  1.0000
  C   C111      1.0  0.11220  0.11510  0.80430  1.0000
  C   C112      1.0  0.88780  0.61510  0.69570  1.0000
  O   O13       1.0  0.08760  0.87200  0.83990  1.0000
  O   O14       1.0  0.91240  0.37200  0.66010  1.0000
  O   O15       1.0  0.91240  0.12800  0.16010  1.0000
  O   O16       1.0  0.08760  0.62800  0.33990  1.0000
  C   C113      1.0  0.82990  0.86620  0.48480  1.0000
  C   C114      1.0  0.17010  0.36620  0.01520  1.0000
  C   C115      1.0  0.17010  0.13380  0.51520  1.0000
  C   C116      1.0  0.82990  0.63380  0.98480  1.0000
  H   H53       1.0  0.75990  0.85970  0.47100  1.0000
  H   H54       1.0  0.24010  0.35970  0.02900  1.0000
  H   H55       1.0  0.24010  0.14030  0.52900  1.0000
  H   H56       1.0  0.75990  0.64030  0.97100  1.0000
  O   O17       1.0  0.79800  0.87400  0.37000  1.0000
  O   O18       1.0  0.20200  0.37400  0.13000  1.0000
  O   O19       1.0  0.20200  0.12600  0.63000  1.0000
  O   O20       1.0  0.79800  0.62600  0.87000  1.0000
  C   C117      1.0  0.71250  0.57690  0.26590  1.0000
  C   C118      1.0  0.28750  0.07690  0.23410  1.0000
  C   C119      1.0  0.28750  0.42310  0.73410  1.0000
  C   C120      1.0  0.71250  0.92310  0.76590  1.0000
  C   C121      1.0  0.60190  0.57700  0.26370  1.0000
  C   C122      1.0  0.39810  0.07700  0.23630  1.0000
  C   C123      1.0  0.39810  0.42300  0.73630  1.0000
  C   C124      1.0  0.60190  0.92300  0.76370  1.0000
  H   H57       1.0  0.56390  0.63580  0.27190  1.0000
  H   H58       1.0  0.43610  0.13580  0.22810  1.0000
  H   H59       1.0  0.43610  0.36420  0.72810  1.0000
  H   H60       1.0  0.56390  0.86420  0.77190  1.0000
  O   O21       1.0  0.86620  0.31940  0.21880  1.0000
  O   O22       1.0  0.13380  0.81940  0.28120  1.0000
  O   O23       1.0  0.13380  0.68060  0.78120  1.0000
  O   O24       1.0  0.86620  0.18060  0.71880  1.0000
  C   C125      1.0  0.43030  0.49300  0.25060  1.0000
  C   C126      1.0  0.56970  0.99300  0.24940  1.0000
  C   C127      1.0  0.56970  0.50700  0.74940  1.0000
  C   C128      1.0  0.43030  0.00700  0.75060  1.0000
  C   C129      1.0  0.54730  0.49000  0.24930  1.0000
  C   C130      1.0  0.45270  0.99000  0.25070  1.0000
  C   C131      1.0  0.45270  0.51000  0.75070  1.0000
  C   C132      1.0  0.54730  0.01000  0.74930  1.0000
  O   O25       1.0  0.38250  0.43220  0.21770  1.0000
  O   O26       1.0  0.61750  0.93220  0.28230  1.0000
  O   O27       1.0  0.61750  0.56780  0.78230  1.0000
  O   O28       1.0  0.38250  0.06780  0.71770  1.0000
  O   O29       1.0  0.38550  0.55150  0.28130  1.0000
  O   O30       1.0  0.61450  0.05150  0.21870  1.0000
  O   O31       1.0  0.61450  0.44850  0.71870  1.0000
  O   O32       1.0  0.38550  0.94850  0.78130  1.0000
  O   O33       1.0  0.71870  0.23410  0.21950  1.0000
  O   O34       1.0  0.28130  0.73410  0.28050  1.0000
  O   O35       1.0  0.28130  0.76590  0.78050  1.0000
  O   O36       1.0  0.71870  0.26590  0.71950  1.0000
  O   O37       1.0  0.86340  0.65990  0.29800  1.0000
  O   O38       1.0  0.13660  0.15990  0.20200  1.0000
  O   O39       1.0  0.13660  0.34010  0.70200  1.0000
  O   O40       1.0  0.86340  0.84010  0.79800  1.0000
  O   O41       1.0  0.72130  0.74830  0.27280  1.0000
  O   O42       1.0  0.27870  0.24830  0.22720  1.0000
  O   O43       1.0  0.27870  0.25170  0.72720  1.0000
  O   O44       1.0  0.72130  0.75170  0.77280  1.0000
  O   O45       1.0  0.22890  0.89210  0.88720  1.0000
  O   O46       1.0  0.77110  0.39210  0.61280  1.0000
  O   O47       1.0  0.77110  0.10790  0.11280  1.0000
  O   O48       1.0  0.22890  0.60790  0.38720  1.0000
  O   O49       1.0  0.92190  0.84610  0.23840  1.0000
  O   O50       1.0  0.07810  0.34610  0.26160  1.0000
  O   O51       1.0  0.07810  0.15390  0.76160  1.0000
  O   O52       1.0  0.92190  0.65390  0.73840  1.0000
  O   O53       1.0  0.79810  0.92590  0.19570  1.0000
  O   O54       1.0  0.20190  0.42590  0.30430  1.0000
  O   O55       1.0  0.20190  0.07410  0.80430  1.0000
  O   O56       1.0  0.79810  0.57410  0.69570  1.0000
