data_image0
_chemical_formula_structural       Mn3O32C4H4C4H2C2H2C4H2C2H2C12H2C2H6C2H6C4H2C2H2C4H2C2H2C2H4C10H2C6H6C2H6C4H2C2H2C4H2C2H2C2H4C6H2C2H2C4H2C2H2C2H4C2O2
_chemical_formula_sum              "Mn3 O34 C96 H76"
_cell_length_a       14.1569
_cell_length_b       16.4929
_cell_length_c       16.53
_cell_angle_alpha    84.763
_cell_angle_beta     75.835
_cell_angle_gamma    88.628

_space_group_name_H-M_alt    "P 1"
_space_group_IT_number       1

loop_
  _space_group_symop_operation_xyz
  'x, y, z'

loop_
  _atom_site_type_symbol
  _atom_site_label
  _atom_site_symmetry_multiplicity
  _atom_site_fract_x
  _atom_site_fract_y
  _atom_site_fract_z
  _atom_site_occupancy
  Mn  Mn1       1.0  0.95333  0.84116  0.18161  1.0000
  Mn  Mn2       1.0  0.04667  0.15884  0.81839  1.0000
  Mn  Mn3       1.0  0.00000  0.00000  0.00000  1.0000
  O   O1        1.0  0.12690  0.94510  0.03660  1.0000
  O   O2        1.0  0.87310  0.05490  0.96340  1.0000
  O   O3        1.0  0.09370  0.88520  0.16830  1.0000
  O   O4        1.0  0.90630  0.11480  0.83170  1.0000
  O   O5        1.0  0.28260  0.88940  0.17410  1.0000
  O   O6        1.0  0.71740  0.11060  0.82590  1.0000
  O   O7        1.0  0.19740  0.12110  0.80820  1.0000
  O   O8        1.0  0.80260  0.87890  0.19180  1.0000
  O   O9        1.0  0.09370  0.02400  0.87170  1.0000
  O   O10       1.0  0.90630  0.97600  0.12830  1.0000
  O   O11       1.0  0.35450  0.03100  0.82750  1.0000
  O   O12       1.0  0.64550  0.96900  0.17250  1.0000
  O   O13       1.0  0.04950  0.10950  0.03380  1.0000
  O   O14       1.0  0.95050  0.89050  0.96620  1.0000
  O   O15       1.0  0.02650  0.20930  0.93870  1.0000
  O   O16       1.0  0.97350  0.79070  0.06130  1.0000
  O   O17       1.0  0.96950  0.31290  0.06560  1.0000
  O   O18       1.0  0.03050  0.68710  0.93440  1.0000
  O   O19       1.0  0.04770  0.27690  0.76380  1.0000
  O   O20       1.0  0.95230  0.72310  0.23620  1.0000
  O   O21       1.0  0.00740  0.39040  0.69480  1.0000
  O   O22       1.0  0.99260  0.60960  0.30520  1.0000
  O   O23       1.0  0.91330  0.30790  0.60460  1.0000
  O   O24       1.0  0.08670  0.69210  0.39540  1.0000
  O   O25       1.0  0.26310  0.29380  0.28400  1.0000
  O   O26       1.0  0.73690  0.70620  0.71600  1.0000
  O   O27       1.0  0.38720  0.52210  0.09640  1.0000
  O   O28       1.0  0.61280  0.47790  0.90360  1.0000
  O   O29       1.0  0.27450  0.31600  0.07860  1.0000
  O   O30       1.0  0.72550  0.68400  0.92140  1.0000
  O   O31       1.0  0.52200  0.39760  0.20560  1.0000
  O   O32       1.0  0.47800  0.60240  0.79440  1.0000
  C   C1        1.0  0.14910  0.91820  0.10240  1.0000
  C   C2        1.0  0.85090  0.08180  0.89760  1.0000
  C   C3        1.0  0.25540  0.92900  0.10280  1.0000
  C   C4        1.0  0.74460  0.07100  0.89720  1.0000
  H   H1        1.0  0.29602  0.90830  0.05273  1.0000
  H   H2        1.0  0.70398  0.09170  0.94727  1.0000
  H   H3        1.0  0.26867  0.98678  0.10008  1.0000
  H   H4        1.0  0.73133  0.01322  0.89992  1.0000
  C   C5        1.0  0.28130  0.80580  0.18190  1.0000
  C   C6        1.0  0.71870  0.19420  0.81810  1.0000
  C   C7        1.0  0.25790  0.75800  0.12400  1.0000
  C   C8        1.0  0.74210  0.24200  0.87600  1.0000
  H   H5        1.0  0.24273  0.78271  0.07584  1.0000
  H   H6        1.0  0.75727  0.21729  0.92416  1.0000
  C   C9        1.0  0.25750  0.67390  0.13820  1.0000
  C   C10       1.0  0.74250  0.32610  0.86180  1.0000
  H   H7        1.0  0.24274  0.64244  0.09906  1.0000
  H   H8        1.0  0.75726  0.35756  0.90094  1.0000
  C   C11       1.0  0.27880  0.63590  0.21010  1.0000
  C   C12       1.0  0.72120  0.36410  0.78990  1.0000
  C   C13       1.0  0.30160  0.68470  0.26730  1.0000
  C   C14       1.0  0.69840  0.31530  0.73270  1.0000
  H   H9        1.0  0.31502  0.66031  0.31626  1.0000
  H   H10       1.0  0.68498  0.33969  0.68374  1.0000
  C   C15       1.0  0.30480  0.76910  0.25280  1.0000
  C   C16       1.0  0.69520  0.23090  0.74720  1.0000
  H   H11       1.0  0.32256  0.80056  0.29053  1.0000
  H   H12       1.0  0.67744  0.19944  0.70947  1.0000
  C   C17       1.0  0.27380  0.54580  0.22820  1.0000
  C   C18       1.0  0.72620  0.45420  0.77180  1.0000
  C   C19       1.0  0.33200  0.49390  0.17410  1.0000
  C   C20       1.0  0.66800  0.50610  0.82590  1.0000
  C   C21       1.0  0.32780  0.41000  0.19460  1.0000
  C   C22       1.0  0.67220  0.59000  0.80540  1.0000
  C   C23       1.0  0.26260  0.37690  0.26600  1.0000
  C   C24       1.0  0.73740  0.62310  0.73400  1.0000
  C   C25       1.0  0.20130  0.42810  0.31990  1.0000
  C   C26       1.0  0.79870  0.57190  0.68010  1.0000
  C   C27       1.0  0.20910  0.51120  0.30060  1.0000
  C   C28       1.0  0.79090  0.48880  0.69940  1.0000
  H   H13       1.0  0.17020  0.54533  0.33682  1.0000
  H   H14       1.0  0.82980  0.45467  0.66318  1.0000
  C   C29       1.0  0.47490  0.56420  0.09540  1.0000
  C   C30       1.0  0.52510  0.43580  0.90460  1.0000
  H   H15       1.0  0.51001  0.57802  0.03847  1.0000
  H   H16       1.0  0.48999  0.42198  0.96153  1.0000
  H   H17       1.0  0.51467  0.52979  0.12364  1.0000
  H   H18       1.0  0.48533  0.47021  0.87636  1.0000
  H   H19       1.0  0.45885  0.61302  0.12337  1.0000
  H   H20       1.0  0.54115  0.38698  0.87663  1.0000
  C   C31       1.0  0.18210  0.25230  0.26940  1.0000
  C   C32       1.0  0.81790  0.74770  0.73060  1.0000
  H   H21       1.0  0.18842  0.19488  0.28272  1.0000
  H   H22       1.0  0.81158  0.80512  0.71728  1.0000
  H   H23       1.0  0.18080  0.26258  0.21159  1.0000
  H   H24       1.0  0.81920  0.73742  0.78841  1.0000
  H   H25       1.0  0.12278  0.27168  0.30412  1.0000
  H   H26       1.0  0.87722  0.72832  0.69588  1.0000
  C   C33       1.0  0.12710  0.39490  0.39560  1.0000
  C   C34       1.0  0.87290  0.60510  0.60440  1.0000
  C   C35       1.0  0.14800  0.33050  0.44950  1.0000
  C   C36       1.0  0.85200  0.66950  0.55050  1.0000
  H   H27       1.0  0.20987  0.30733  0.43764  1.0000
  H   H28       1.0  0.79013  0.69267  0.56236  1.0000
  C   C37       1.0  0.07930  0.30000  0.51990  1.0000
  C   C38       1.0  0.92070  0.70000  0.48010  1.0000
  H   H29       1.0  0.09552  0.25778  0.55535  1.0000
  H   H30       1.0  0.90448  0.74222  0.44465  1.0000
  C   C39       1.0  0.98650  0.33280  0.53730  1.0000
  C   C40       1.0  0.01350  0.66720  0.46270  1.0000
  C   C41       1.0  0.96340  0.39710  0.48390  1.0000
  C   C42       1.0  0.03660  0.60290  0.51610  1.0000
  H   H31       1.0  0.90089  0.41908  0.49505  1.0000
  H   H32       1.0  0.09911  0.58092  0.50495  1.0000
  C   C43       1.0  0.03390  0.42820  0.41420  1.0000
  C   C44       1.0  0.96610  0.57180  0.58580  1.0000
  H   H33       1.0  0.01850  0.47163  0.37979  1.0000
  H   H34       1.0  0.98150  0.52837  0.62021  1.0000
  C   C45       1.0  0.94360  0.26410  0.67290  1.0000
  C   C46       1.0  0.05640  0.73590  0.32710  1.0000
  H   H35       1.0  0.98122  0.21684  0.65286  1.0000
  H   H36       1.0  0.01878  0.78316  0.34714  1.0000
  H   H37       1.0  0.88638  0.24476  0.71523  1.0000
  H   H38       1.0  0.11362  0.75524  0.28477  1.0000
  C   C47       1.0  0.00430  0.31530  0.71250  1.0000
  C   C48       1.0  0.99570  0.68470  0.28750  1.0000
  C   C49       1.0  0.39810  0.35550  0.14120  1.0000
  C   C50       1.0  0.60190  0.64450  0.85880  1.0000
  C   C51       1.0  0.36920  0.30820  0.08640  1.0000
  C   C52       1.0  0.63080  0.69180  0.91360  1.0000
  C   C53       1.0  0.43400  0.25500  0.04070  1.0000
  C   C54       1.0  0.56600  0.74500  0.95930  1.0000
  C   C55       1.0  0.53090  0.25400  0.04830  1.0000
  C   C56       1.0  0.46910  0.74600  0.95170  1.0000
  H   H39       1.0  0.57507  0.21933  0.01690  1.0000
  H   H40       1.0  0.42493  0.78067  0.98310  1.0000
  C   C57       1.0  0.56340  0.30180  0.09990  1.0000
  C   C58       1.0  0.43660  0.69820  0.90010  1.0000
  C   C59       1.0  0.49450  0.35150  0.14920  1.0000
  C   C60       1.0  0.50550  0.64850  0.85080  1.0000
  C   C61       1.0  0.51580  0.35360  0.28410  1.0000
  C   C62       1.0  0.48420  0.64640  0.71590  1.0000
  H   H41       1.0  0.53909  0.38678  0.31991  1.0000
  H   H42       1.0  0.46091  0.61322  0.68009  1.0000
  H   H43       1.0  0.55479  0.30519  0.27654  1.0000
  H   H44       1.0  0.44521  0.69481  0.72346  1.0000
  H   H45       1.0  0.44916  0.33890  0.30932  1.0000
  H   H46       1.0  0.55084  0.66110  0.69068  1.0000
  C   C63       1.0  0.26690  0.37110  0.00890  1.0000
  C   C64       1.0  0.73310  0.62890  0.99110  1.0000
  H   H47       1.0  0.20059  0.37323  0.00437  1.0000
  H   H48       1.0  0.79941  0.62677  0.99563  1.0000
  H   H49       1.0  0.30804  0.35285  0.95860  1.0000
  H   H50       1.0  0.69196  0.64715  0.04140  1.0000
  H   H51       1.0  0.28707  0.42436  0.01687  1.0000
  H   H52       1.0  0.71293  0.57564  0.98313  1.0000
  C   C65       1.0  0.40640  0.19980  0.98440  1.0000
  C   C66       1.0  0.59360  0.80020  0.01560  1.0000
  C   C67       1.0  0.32080  0.15610  0.00580  1.0000
  C   C68       1.0  0.67920  0.84390  0.99420  1.0000
  H   H53       1.0  0.27564  0.16511  0.05539  1.0000
  H   H54       1.0  0.72436  0.83489  0.94461  1.0000
  C   C69       1.0  0.29940  0.09900  0.95590  1.0000
  C   C70       1.0  0.70060  0.90100  0.04410  1.0000
  H   H55       1.0  0.24143  0.06988  0.97212  1.0000
  H   H56       1.0  0.75857  0.93012  0.02788  1.0000
  C   C71       1.0  0.36720  0.08640  0.88070  1.0000
  C   C72       1.0  0.63280  0.91360  0.11930  1.0000
  C   C73       1.0  0.45220  0.13010  0.85660  1.0000
  C   C74       1.0  0.54780  0.86990  0.14340  1.0000
  H   H57       1.0  0.49636  0.12210  0.80616  1.0000
  H   H58       1.0  0.50364  0.87790  0.19384  1.0000
  C   C75       1.0  0.47240  0.18640  0.90770  1.0000
  C   C76       1.0  0.52760  0.81360  0.09230  1.0000
  H   H59       1.0  0.53022  0.21574  0.89103  1.0000
  H   H60       1.0  0.46978  0.78426  0.10897  1.0000
  C   C77       1.0  0.26220  0.99160  0.84680  1.0000
  C   C78       1.0  0.73780  0.00840  0.15320  1.0000
  H   H61       1.0  0.25016  0.96413  0.90279  1.0000
  H   H62       1.0  0.74984  0.03587  0.09721  1.0000
  H   H63       1.0  0.26374  0.95064  0.80796  1.0000
  H   H64       1.0  0.73626  0.04936  0.19204  1.0000
  C   C79       1.0  0.17950  0.05040  0.84210  1.0000
  C   C80       1.0  0.82050  0.94960  0.15790  1.0000
  C   C81       1.0  0.66920  0.30320  0.09840  1.0000
  C   C82       1.0  0.33080  0.69680  0.90160  1.0000
  C   C83       1.0  0.72090  0.23130  0.10130  1.0000
  C   C84       1.0  0.27910  0.76870  0.89870  1.0000
  H   H65       1.0  0.68816  0.18190  0.10947  1.0000
  H   H66       1.0  0.31184  0.81810  0.89053  1.0000
  C   C85       1.0  0.82100  0.23180  0.09210  1.0000
  C   C86       1.0  0.17900  0.76820  0.90790  1.0000
  H   H67       1.0  0.85459  0.18287  0.09512  1.0000
  H   H68       1.0  0.14541  0.81713  0.90488  1.0000
  C   C87       1.0  0.87030  0.30400  0.07860  1.0000
  C   C88       1.0  0.12970  0.69600  0.92140  1.0000
  C   C89       1.0  0.81860  0.37740  0.07670  1.0000
  C   C90       1.0  0.18140  0.62260  0.92330  1.0000
  H   H69       1.0  0.85156  0.42678  0.06826  1.0000
  H   H70       1.0  0.14844  0.57322  0.93174  1.0000
  C   C91       1.0  0.71930  0.37660  0.08730  1.0000
  C   C92       1.0  0.28070  0.62340  0.91270  1.0000
  H   H71       1.0  0.68521  0.42555  0.08713  1.0000
  H   H72       1.0  0.31479  0.57445  0.91287  1.0000
  C   C93       1.0  0.02300  0.24040  0.07720  1.0000
  C   C94       1.0  0.97700  0.75960  0.92280  1.0000
  H   H73       1.0  0.99151  0.21198  0.13063  1.0000
  H   H74       1.0  0.00849  0.78802  0.86937  1.0000
  H   H75       1.0  0.08769  0.25554  0.08039  1.0000
  H   H76       1.0  0.91231  0.74446  0.91961  1.0000
  C   C95       1.0  0.03360  0.18140  0.00980  1.0000
  C   C96       1.0  0.96640  0.81860  0.99020  1.0000
  O   O33       1.0  0.92250  0.89830  0.30770  1.0000
  O   O34       1.0  0.07750  0.10170  0.69230  1.0000
