data_image0
_chemical_formula_structural       Zn3O32C4H4C4H2C2H2C4H2C2H2C12H2C4H2C2H2C4H2C2H2C2H4C4H6C2H6C8H2C6H6C2H6C4H2C2H2C4H2C2H2C2H4C6H2C2H2C4H2C2H2C2H4C2
_chemical_formula_sum              "Zn3 O32 C96 H76"
_cell_length_a       13.8543
_cell_length_b       16.394
_cell_length_c       16.6817
_cell_angle_alpha    83.66
_cell_angle_beta     76.555
_cell_angle_gamma    89.148

_space_group_name_H-M_alt    "P 1"
_space_group_IT_number       1

loop_
  _space_group_symop_operation_xyz
  'x, y, z'

loop_
  _atom_site_type_symbol
  _atom_site_label
  _atom_site_symmetry_multiplicity
  _atom_site_fract_x
  _atom_site_fract_y
  _atom_site_fract_z
  _atom_site_occupancy
  Zn  Zn1       1.0  0.46677  0.82197  0.15757  1.0000
  Zn  Zn2       1.0  0.53323  0.17803  0.84243  1.0000
  Zn  Zn3       1.0  0.50000  0.00000  0.00000  1.0000
  O   O1        1.0  0.47920  0.77940  0.05130  1.0000
  O   O2        1.0  0.52080  0.22060  0.94870  1.0000
  O   O3        1.0  0.43890  0.89190  0.97780  1.0000
  O   O4        1.0  0.56110  0.10810  0.02220  1.0000
  O   O5        1.0  0.52960  0.69900  0.91410  1.0000
  O   O6        1.0  0.47040  0.30100  0.08590  1.0000
  O   O7        1.0  0.41350  0.99220  0.12590  1.0000
  O   O8        1.0  0.58650  0.00780  0.87410  1.0000
  O   O9        1.0  0.33960  0.87710  0.19260  1.0000
  O   O10       1.0  0.66040  0.12290  0.80740  1.0000
  O   O11       1.0  0.15550  0.94170  0.19740  1.0000
  O   O12       1.0  0.84450  0.05830  0.80260  1.0000
  O   O13       1.0  0.23410  0.68810  0.92360  1.0000
  O   O14       1.0  0.76590  0.31190  0.07640  1.0000
  O   O15       1.0  0.98000  0.61090  0.79620  1.0000
  O   O16       1.0  0.02000  0.38910  0.20380  1.0000
  O   O17       1.0  0.11520  0.48183  0.90580  1.0000
  O   O18       1.0  0.88480  0.51817  0.09420  1.0000
  O   O19       1.0  0.24010  0.71350  0.71500  1.0000
  O   O20       1.0  0.75990  0.28650  0.28500  1.0000
  O   O21       1.0  0.22080  0.11300  0.82530  1.0000
  O   O22       1.0  0.77920  0.88700  0.17470  1.0000
  O   O23       1.0  0.37610  0.05830  0.96680  1.0000
  O   O24       1.0  0.62390  0.94170  0.03320  1.0000
  O   O25       1.0  0.41030  0.12270  0.83780  1.0000
  O   O26       1.0  0.58970  0.87730  0.16220  1.0000
  O   O27       1.0  0.57880  0.70640  0.39420  1.0000
  O   O28       1.0  0.42120  0.29360  0.60580  1.0000
  O   O29       1.0  0.49920  0.61200  0.30490  1.0000
  O   O30       1.0  0.50080  0.38800  0.69510  1.0000
  O   O31       1.0  0.46140  0.71680  0.22360  1.0000
  O   O32       1.0  0.53860  0.28320  0.77640  1.0000
  C   C1        1.0  0.46410  0.81880  0.98740  1.0000
  C   C2        1.0  0.53590  0.18120  0.01260  1.0000
  C   C3        1.0  0.47530  0.77390  0.91070  1.0000
  C   C4        1.0  0.52470  0.22610  0.08930  1.0000
  H   H1        1.0  0.40977  0.76174  0.90337  1.0000
  H   H2        1.0  0.59023  0.23826  0.09663  1.0000
  H   H3        1.0  0.50881  0.81006  0.86252  1.0000
  H   H4        1.0  0.49119  0.18994  0.13748  1.0000
  C   C5        1.0  0.62940  0.70560  0.90990  1.0000
  C   C6        1.0  0.37060  0.29440  0.09010  1.0000
  C   C7        1.0  0.68010  0.77930  0.90130  1.0000
  C   C8        1.0  0.31990  0.22070  0.09870  1.0000
  H   H5        1.0  0.64693  0.82892  0.89889  1.0000
  H   H6        1.0  0.35307  0.17108  0.10111  1.0000
  C   C9        1.0  0.78200  0.77750  0.89620  1.0000
  C   C10       1.0  0.21800  0.22250  0.10380  1.0000
  H   H7        1.0  0.81643  0.82696  0.88989  1.0000
  H   H8        1.0  0.18357  0.17304  0.11011  1.0000
  C   C11       1.0  0.83380  0.70510  0.90030  1.0000
  C   C12       1.0  0.16620  0.29490  0.09970  1.0000
  C   C13       1.0  0.77990  0.63180  0.90720  1.0000
  C   C14       1.0  0.22010  0.36820  0.09280  1.0000
  H   H9        1.0  0.81243  0.58179  0.90792  1.0000
  H   H10       1.0  0.18757  0.41821  0.09208  1.0000
  C   C15       1.0  0.67930  0.63340  0.91290  1.0000
  C   C16       1.0  0.32070  0.36660  0.08710  1.0000
  H   H11       1.0  0.64450  0.58422  0.91897  1.0000
  H   H12       1.0  0.35550  0.41578  0.08103  1.0000
  C   C17       1.0  0.93980  0.70380  0.90250  1.0000
  C   C18       1.0  0.06020  0.29620  0.09750  1.0000
  C   C19       1.0  0.00940  0.65610  0.85220  1.0000
  C   C20       1.0  0.99060  0.34390  0.14780  1.0000
  C   C21       1.0  0.10720  0.65020  0.86030  1.0000
  C   C22       1.0  0.89280  0.34980  0.13970  1.0000
  C   C23       1.0  0.13690  0.69510  0.91650  1.0000
  C   C24       1.0  0.86310  0.30490  0.08350  1.0000
  C   C25       1.0  0.07190  0.74630  0.96450  1.0000
  C   C26       1.0  0.92810  0.25370  0.03550  1.0000
  C   C27       1.0  0.97440  0.74860  0.95440  1.0000
  C   C28       1.0  0.02560  0.25140  0.04560  1.0000
  H   H13       1.0  0.93017  0.78300  0.98518  1.0000
  H   H14       1.0  0.06983  0.21700  0.01482  1.0000
  C   C29       1.0  0.09980  0.79490  0.02400  1.0000
  C   C30       1.0  0.90020  0.20510  0.97600  1.0000
  C   C31       1.0  0.18330  0.84630  0.00470  1.0000
  C   C32       1.0  0.81670  0.15370  0.99530  1.0000
  H   H15       1.0  0.22589  0.84704  0.95252  1.0000
  H   H16       1.0  0.77411  0.15296  0.04748  1.0000
  C   C33       1.0  0.20560  0.89610  0.05940  1.0000
  C   C34       1.0  0.79440  0.10390  0.94060  1.0000
  H   H17       1.0  0.26221  0.92936  0.04458  1.0000
  H   H18       1.0  0.73779  0.07064  0.95542  1.0000
  C   C35       1.0  0.14180  0.89570  0.13740  1.0000
  C   C36       1.0  0.85820  0.10430  0.86260  1.0000
  C   C37       1.0  0.05820  0.84590  0.15840  1.0000
  C   C38       1.0  0.94180  0.15410  0.84160  1.0000
  H   H19       1.0  0.01588  0.84557  0.21062  1.0000
  H   H20       1.0  0.98412  0.15443  0.78938  1.0000
  C   C39       1.0  0.03690  0.79690  0.10280  1.0000
  C   C40       1.0  0.96310  0.20310  0.89720  1.0000
  H   H21       1.0  0.97966  0.76452  0.11786  1.0000
  H   H22       1.0  0.02034  0.23548  0.88214  1.0000
  C   C41       1.0  0.24090  0.99490  0.17550  1.0000
  C   C42       1.0  0.75910  0.00510  0.82450  1.0000
  H   H23       1.0  0.23683  0.03085  0.21857  1.0000
  H   H24       1.0  0.76317  0.96915  0.78143  1.0000
  H   H25       1.0  0.23891  0.02913  0.12458  1.0000
  H   H26       1.0  0.76109  0.97087  0.87542  1.0000
  C   C43       1.0  0.33960  0.95170  0.16330  1.0000
  C   C44       1.0  0.66040  0.04830  0.83670  1.0000
  C   C45       1.0  0.98450  0.65880  0.71860  1.0000
  C   C46       1.0  0.01550  0.34120  0.28140  1.0000
  H   H27       1.0  0.95850  0.62723  0.68307  1.0000
  H   H28       1.0  0.04150  0.37277  0.31693  1.0000
  H   H29       1.0  0.05218  0.67398  0.69305  1.0000
  H   H30       1.0  0.94782  0.32602  0.30695  1.0000
  H   H31       1.0  0.94573  0.70741  0.72757  1.0000
  H   H32       1.0  0.05427  0.29259  0.27243  1.0000
  C   C47       1.0  0.24520  0.63070  0.99240  1.0000
  C   C48       1.0  0.75480  0.36930  0.00760  1.0000
  H   H33       1.0  0.31363  0.62895  0.99524  1.0000
  H   H34       1.0  0.68637  0.37105  0.00476  1.0000
  H   H35       1.0  0.22394  0.57712  0.98499  1.0000
  H   H36       1.0  0.77606  0.42288  0.01501  1.0000
  H   H37       1.0  0.20547  0.64764  0.04289  1.0000
  H   H38       1.0  0.79453  0.35236  0.95711  1.0000
  C   C49       1.0  0.17550  0.59630  0.80800  1.0000
  C   C50       1.0  0.82450  0.40370  0.19200  1.0000
  C   C51       1.0  0.17100  0.51070  0.82850  1.0000
  C   C52       1.0  0.82900  0.48930  0.17150  1.0000
  C   C53       1.0  0.22640  0.45880  0.77360  1.0000
  C   C54       1.0  0.77360  0.54120  0.22640  1.0000
  C   C55       1.0  0.28760  0.49440  0.70180  1.0000
  C   C56       1.0  0.71240  0.50560  0.29820  1.0000
  H   H39       1.0  0.32443  0.46010  0.66552  1.0000
  H   H40       1.0  0.67557  0.53990  0.33448  1.0000
  C   C57       1.0  0.29780  0.57900  0.68010  1.0000
  C   C58       1.0  0.70220  0.42100  0.31990  1.0000
  C   C59       1.0  0.24050  0.62890  0.73400  1.0000
  C   C60       1.0  0.75950  0.37110  0.26600  1.0000
  C   C61       1.0  0.32520  0.75420  0.72730  1.0000
  C   C62       1.0  0.67480  0.24580  0.27270  1.0000
  H   H41       1.0  0.31613  0.81253  0.72037  1.0000
  H   H42       1.0  0.68387  0.18747  0.27963  1.0000
  H   H43       1.0  0.38312  0.73982  0.68750  1.0000
  H   H44       1.0  0.61688  0.26018  0.31250  1.0000
  H   H45       1.0  0.33349  0.73768  0.78230  1.0000
  H   H46       1.0  0.66651  0.26232  0.21770  1.0000
  C   C63       1.0  0.02300  0.44250  0.90760  1.0000
  C   C64       1.0  0.97700  0.55750  0.09240  1.0000
  H   H47       1.0  0.99057  0.42399  0.96390  1.0000
  H   H48       1.0  0.00943  0.57601  0.03610  1.0000
  H   H49       1.0  0.03538  0.39640  0.87594  1.0000
  H   H50       1.0  0.96462  0.60360  0.12406  1.0000
  H   H51       1.0  0.98127  0.48078  0.88411  1.0000
  H   H52       1.0  0.01873  0.51922  0.11589  1.0000
  C   C65       1.0  0.21980  0.36810  0.79160  1.0000
  C   C66       1.0  0.78020  0.63190  0.20840  1.0000
  C   C67       1.0  0.20080  0.31990  0.73320  1.0000
  C   C68       1.0  0.79920  0.68010  0.26680  1.0000
  H   H53       1.0  0.18791  0.34549  0.68425  1.0000
  H   H54       1.0  0.81209  0.65451  0.31575  1.0000
  C   C69       1.0  0.20060  0.23500  0.74580  1.0000
  C   C70       1.0  0.79940  0.76500  0.25420  1.0000
  H   H55       1.0  0.18782  0.20404  0.70584  1.0000
  H   H56       1.0  0.81218  0.79596  0.29416  1.0000
  C   C71       1.0  0.21970  0.19660  0.81930  1.0000
  C   C72       1.0  0.78030  0.80340  0.18070  1.0000
  C   C73       1.0  0.23820  0.24280  0.87870  1.0000
  C   C74       1.0  0.76180  0.75720  0.12130  1.0000
  H   H57       1.0  0.25155  0.21748  0.92756  1.0000
  H   H58       1.0  0.74845  0.78252  0.07244  1.0000
  C   C75       1.0  0.23630  0.32760  0.86420  1.0000
  C   C76       1.0  0.76370  0.67240  0.13580  1.0000
  H   H59       1.0  0.24664  0.35845  0.90505  1.0000
  H   H60       1.0  0.75336  0.64155  0.09495  1.0000
  C   C77       1.0  0.24820  0.07160  0.89580  1.0000
  C   C78       1.0  0.75180  0.92840  0.10420  1.0000
  H   H61       1.0  0.23766  0.01317  0.89618  1.0000
  H   H62       1.0  0.76234  0.98683  0.10382  1.0000
  H   H63       1.0  0.20431  0.08876  0.94517  1.0000
  H   H64       1.0  0.79569  0.91124  0.05483  1.0000
  C   C79       1.0  0.35370  0.08570  0.90040  1.0000
  C   C80       1.0  0.64630  0.91430  0.09960  1.0000
  C   C81       1.0  0.37030  0.61220  0.60310  1.0000
  C   C82       1.0  0.62970  0.38780  0.39690  1.0000
  C   C83       1.0  0.34430  0.67780  0.55200  1.0000
  C   C84       1.0  0.65570  0.32220  0.44800  1.0000
  H   H65       1.0  0.28180  0.70111  0.56567  1.0000
  H   H66       1.0  0.71820  0.29889  0.43433  1.0000
  C   C85       1.0  0.41340  0.70830  0.48000  1.0000
  C   C86       1.0  0.58660  0.29170  0.52000  1.0000
  H   H67       1.0  0.39623  0.75133  0.44495  1.0000
  H   H68       1.0  0.60377  0.24867  0.55505  1.0000
  C   C87       1.0  0.50560  0.67550  0.46090  1.0000
  C   C88       1.0  0.49440  0.32450  0.53910  1.0000
  C   C89       1.0  0.53120  0.61020  0.51130  1.0000
  C   C90       1.0  0.46880  0.38980  0.48870  1.0000
  H   H69       1.0  0.59440  0.58800  0.49852  1.0000
  H   H70       1.0  0.40560  0.41200  0.50148  1.0000
  C   C91       1.0  0.46180  0.57820  0.58090  1.0000
  C   C92       1.0  0.53820  0.42180  0.41910  1.0000
  H   H71       1.0  0.47790  0.53253  0.61338  1.0000
  H   H72       1.0  0.52210  0.46747  0.38662  1.0000
  C   C93       1.0  0.54610  0.74450  0.32380  1.0000
  C   C94       1.0  0.45390  0.25550  0.67620  1.0000
  H   H73       1.0  0.60259  0.77059  0.28411  1.0000
  H   H74       1.0  0.39741  0.22941  0.71589  1.0000
  H   H75       1.0  0.49908  0.78709  0.34157  1.0000
  H   H76       1.0  0.50092  0.21291  0.65843  1.0000
  C   C95       1.0  0.49920  0.68690  0.28280  1.0000
  C   C96       1.0  0.50080  0.31310  0.71720  1.0000
