data_image0
_chemical_formula_structural       Ni2Cr2O24C12H12
_chemical_formula_sum              "Ni2 Cr2 O24 C12 H12"
_cell_length_a       8.0645
_cell_length_b       8.0645
_cell_length_c       13.746
_cell_angle_alpha    90
_cell_angle_beta     90
_cell_angle_gamma    120

_space_group_name_H-M_alt    "P 1"
_space_group_IT_number       1

loop_
  _space_group_symop_operation_xyz
  'x, y, z'

loop_
  _atom_site_type_symbol
  _atom_site_label
  _atom_site_symmetry_multiplicity
  _atom_site_fract_x
  _atom_site_fract_y
  _atom_site_fract_z
  _atom_site_occupancy
  Ni  Ni1       1.0  0.66667  0.33333  0.75000  1.0000
  Ni  Ni2       1.0  0.33333  0.66667  0.25000  1.0000
  Cr  Cr1       1.0  0.00000  0.00000  0.50000  1.0000
  Cr  Cr2       1.0  0.00000  0.00000  0.00000  1.0000
  O   O1        1.0  0.79260  0.98960  0.58130  1.0000
  O   O2        1.0  0.01040  0.80300  0.58130  1.0000
  O   O3        1.0  0.19700  0.20740  0.58130  1.0000
  O   O4        1.0  0.01040  0.20740  0.91870  1.0000
  O   O5        1.0  0.19700  0.98960  0.91870  1.0000
  O   O6        1.0  0.79260  0.80300  0.91870  1.0000
  O   O7        1.0  0.20740  0.01040  0.41870  1.0000
  O   O8        1.0  0.98960  0.19700  0.41870  1.0000
  O   O9        1.0  0.80300  0.79260  0.41870  1.0000
  O   O10       1.0  0.98960  0.79260  0.08130  1.0000
  O   O11       1.0  0.80300  0.01040  0.08130  1.0000
  O   O12       1.0  0.20740  0.19700  0.08130  1.0000
  O   O13       1.0  0.65900  0.11790  0.66880  1.0000
  O   O14       1.0  0.88210  0.54110  0.66880  1.0000
  O   O15       1.0  0.45890  0.34100  0.66880  1.0000
  O   O16       1.0  0.88210  0.34100  0.83120  1.0000
  O   O17       1.0  0.45890  0.11790  0.83120  1.0000
  O   O18       1.0  0.65900  0.54110  0.83120  1.0000
  O   O19       1.0  0.34100  0.88210  0.33120  1.0000
  O   O20       1.0  0.11790  0.45890  0.33120  1.0000
  O   O21       1.0  0.54110  0.65900  0.33120  1.0000
  O   O22       1.0  0.11790  0.65900  0.16880  1.0000
  O   O23       1.0  0.54110  0.88210  0.16880  1.0000
  O   O24       1.0  0.34100  0.45890  0.16880  1.0000
  C   C1        1.0  0.79130  0.12800  0.62030  1.0000
  C   C2        1.0  0.87200  0.66330  0.62030  1.0000
  C   C3        1.0  0.33670  0.20870  0.62030  1.0000
  C   C4        1.0  0.87200  0.20870  0.87970  1.0000
  C   C5        1.0  0.33670  0.12800  0.87970  1.0000
  C   C6        1.0  0.79130  0.66330  0.87970  1.0000
  C   C7        1.0  0.20870  0.87200  0.37970  1.0000
  C   C8        1.0  0.12800  0.33670  0.37970  1.0000
  C   C9        1.0  0.66330  0.79130  0.37970  1.0000
  C   C10       1.0  0.12800  0.79130  0.12030  1.0000
  C   C11       1.0  0.66330  0.87200  0.12030  1.0000
  C   C12       1.0  0.20870  0.33670  0.12030  1.0000
  H   H1        1.0  0.89887  0.24830  0.61204  1.0000
  H   H2        1.0  0.75170  0.65057  0.61204  1.0000
  H   H3        1.0  0.34943  0.10113  0.61204  1.0000
  H   H4        1.0  0.75170  0.10113  0.88796  1.0000
  H   H5        1.0  0.34943  0.24830  0.88796  1.0000
  H   H6        1.0  0.89887  0.65057  0.88796  1.0000
  H   H7        1.0  0.10113  0.75170  0.38796  1.0000
  H   H8        1.0  0.24830  0.34943  0.38796  1.0000
  H   H9        1.0  0.65057  0.89887  0.38796  1.0000
  H   H10       1.0  0.24830  0.89887  0.11204  1.0000
  H   H11       1.0  0.65057  0.75170  0.11204  1.0000
  H   H12       1.0  0.10113  0.34943  0.11204  1.0000
