data_image0
_chemical_formula_structural       Zn8O32N20C24H8C8H8C16H8C24H8
_chemical_formula_sum              "Zn8 O32 N20 C72 H32"
_cell_length_a       20.076
_cell_length_b       19.744
_cell_length_c       14.25
_cell_angle_alpha    90
_cell_angle_beta     133.285
_cell_angle_gamma    90

_space_group_name_H-M_alt    "P 1"
_space_group_IT_number       1

loop_
  _space_group_symop_operation_xyz
  'x, y, z'

loop_
  _atom_site_type_symbol
  _atom_site_label
  _atom_site_symmetry_multiplicity
  _atom_site_fract_x
  _atom_site_fract_y
  _atom_site_fract_z
  _atom_site_occupancy
  Zn  Zn1       1.0  0.50000  0.59563  0.50000  1.0000
  Zn  Zn2       1.0  0.00000  0.09563  0.50000  1.0000
  Zn  Zn3       1.0  0.50000  0.40437  0.50000  1.0000
  Zn  Zn4       1.0  0.00000  0.90437  0.50000  1.0000
  Zn  Zn5       1.0  0.47790  0.50000  0.08010  1.0000
  Zn  Zn6       1.0  0.52210  0.50000  0.91990  1.0000
  Zn  Zn7       1.0  0.97790  0.00000  0.08010  1.0000
  Zn  Zn8       1.0  0.02210  0.00000  0.91990  1.0000
  O   O1        1.0  0.61161  0.64860  0.60970  1.0000
  O   O2        1.0  0.38839  0.64860  0.39030  1.0000
  O   O3        1.0  0.11161  0.14860  0.60970  1.0000
  O   O4        1.0  0.88839  0.14860  0.39030  1.0000
  O   O5        1.0  0.38839  0.35140  0.39030  1.0000
  O   O6        1.0  0.61161  0.35140  0.60970  1.0000
  O   O7        1.0  0.88839  0.85140  0.39030  1.0000
  O   O8        1.0  0.11161  0.85140  0.60970  1.0000
  O   O9        1.0  0.56300  0.69457  0.43160  1.0000
  O   O10       1.0  0.43700  0.69457  0.56840  1.0000
  O   O11       1.0  0.06300  0.19457  0.43160  1.0000
  O   O12       1.0  0.93700  0.19457  0.56840  1.0000
  O   O13       1.0  0.43700  0.30543  0.56840  1.0000
  O   O14       1.0  0.56300  0.30543  0.43160  1.0000
  O   O15       1.0  0.93700  0.80543  0.56840  1.0000
  O   O16       1.0  0.06300  0.80543  0.43160  1.0000
  O   O17       1.0  0.88549  0.92827  0.95340  1.0000
  O   O18       1.0  0.11451  0.92827  0.04660  1.0000
  O   O19       1.0  0.38549  0.42827  0.95340  1.0000
  O   O20       1.0  0.61451  0.42827  0.04660  1.0000
  O   O21       1.0  0.11451  0.07173  0.04660  1.0000
  O   O22       1.0  0.88549  0.07173  0.95340  1.0000
  O   O23       1.0  0.61451  0.57173  0.04660  1.0000
  O   O24       1.0  0.38549  0.57173  0.95340  1.0000
  O   O25       1.0  0.92328  0.92734  0.83820  1.0000
  O   O26       1.0  0.07672  0.92734  0.16180  1.0000
  O   O27       1.0  0.42328  0.42734  0.83820  1.0000
  O   O28       1.0  0.57672  0.42734  0.16180  1.0000
  O   O29       1.0  0.07672  0.07266  0.16180  1.0000
  O   O30       1.0  0.92328  0.07266  0.83820  1.0000
  O   O31       1.0  0.57672  0.57266  0.16180  1.0000
  O   O32       1.0  0.42328  0.57266  0.83820  1.0000
  N   N1        1.0  0.73990  0.73283  0.52480  1.0000
  N   N2        1.0  0.26010  0.73283  0.47520  1.0000
  N   N3        1.0  0.23990  0.23283  0.52480  1.0000
  N   N4        1.0  0.76010  0.23283  0.47520  1.0000
  N   N5        1.0  0.26010  0.26717  0.47520  1.0000
  N   N6        1.0  0.73990  0.26717  0.52480  1.0000
  N   N7        1.0  0.76010  0.76717  0.47520  1.0000
  N   N8        1.0  0.23990  0.76717  0.52480  1.0000
  N   N9        1.0  0.48892  0.53446  0.37730  1.0000
  N   N10       1.0  0.51108  0.53446  0.62270  1.0000
  N   N11       1.0  0.98892  0.03446  0.37730  1.0000
  N   N12       1.0  0.01108  0.03446  0.62270  1.0000
  N   N13       1.0  0.51108  0.46554  0.62270  1.0000
  N   N14       1.0  0.48892  0.46554  0.37730  1.0000
  N   N15       1.0  0.01108  0.96554  0.62270  1.0000
  N   N16       1.0  0.98892  0.96554  0.37730  1.0000
  N   N17       1.0  0.47540  0.50000  0.21810  1.0000
  N   N18       1.0  0.52460  0.50000  0.78190  1.0000
  N   N19       1.0  0.97540  0.00000  0.21810  1.0000
  N   N20       1.0  0.02460  0.00000  0.78190  1.0000
  C   C1        1.0  0.74260  0.76909  0.61400  1.0000
  C   C2        1.0  0.25740  0.76909  0.38600  1.0000
  C   C3        1.0  0.24260  0.26909  0.61400  1.0000
  C   C4        1.0  0.75740  0.26909  0.38600  1.0000
  C   C5        1.0  0.25740  0.23091  0.38600  1.0000
  C   C6        1.0  0.74260  0.23091  0.61400  1.0000
  C   C7        1.0  0.75740  0.73091  0.38600  1.0000
  C   C8        1.0  0.24260  0.73091  0.61400  1.0000
  C   C9        1.0  0.68560  0.74670  0.63070  1.0000
  C   C10       1.0  0.31440  0.74670  0.36930  1.0000
  C   C11       1.0  0.18560  0.24670  0.63070  1.0000
  C   C12       1.0  0.81440  0.24670  0.36930  1.0000
  C   C13       1.0  0.31440  0.25330  0.36930  1.0000
  C   C14       1.0  0.68560  0.25330  0.63070  1.0000
  C   C15       1.0  0.81440  0.75330  0.36930  1.0000
  C   C16       1.0  0.18560  0.75330  0.63070  1.0000
  C   C17       1.0  0.69350  0.77750  0.72510  1.0000
  C   C18       1.0  0.30650  0.77750  0.27490  1.0000
  C   C19       1.0  0.19350  0.27750  0.72510  1.0000
  C   C20       1.0  0.80650  0.27750  0.27490  1.0000
  C   C21       1.0  0.30650  0.22250  0.27490  1.0000
  C   C22       1.0  0.69350  0.22250  0.72510  1.0000
  C   C23       1.0  0.80650  0.72250  0.27490  1.0000
  C   C24       1.0  0.19350  0.72250  0.72510  1.0000
  H   H1        1.0  0.65660  0.76270  0.73850  1.0000
  H   H2        1.0  0.34340  0.76270  0.26150  1.0000
  H   H3        1.0  0.15660  0.26270  0.73850  1.0000
  H   H4        1.0  0.84340  0.26270  0.26150  1.0000
  H   H5        1.0  0.34340  0.23730  0.26150  1.0000
  H   H6        1.0  0.65660  0.23730  0.73850  1.0000
  H   H7        1.0  0.84340  0.73730  0.26150  1.0000
  H   H8        1.0  0.15660  0.73730  0.73850  1.0000
  C   C25       1.0  0.75390  0.82905  0.79910  1.0000
  C   C26       1.0  0.24610  0.82905  0.20090  1.0000
  C   C27       1.0  0.25390  0.32905  0.79910  1.0000
  C   C28       1.0  0.74610  0.32905  0.20090  1.0000
  C   C29       1.0  0.24610  0.17095  0.20090  1.0000
  C   C30       1.0  0.75390  0.17095  0.79910  1.0000
  C   C31       1.0  0.74610  0.67095  0.20090  1.0000
  C   C32       1.0  0.25390  0.67095  0.79910  1.0000
  H   H9        1.0  0.75690  0.84940  0.86080  1.0000
  H   H10       1.0  0.24310  0.84940  0.13920  1.0000
  H   H11       1.0  0.25690  0.34940  0.86080  1.0000
  H   H12       1.0  0.74310  0.34940  0.13920  1.0000
  H   H13       1.0  0.24310  0.15060  0.13920  1.0000
  H   H14       1.0  0.75690  0.15060  0.86080  1.0000
  H   H15       1.0  0.74310  0.65060  0.13920  1.0000
  H   H16       1.0  0.25690  0.65060  0.86080  1.0000
  C   C33       1.0  0.81120  0.85131  0.78220  1.0000
  C   C34       1.0  0.18880  0.85131  0.21780  1.0000
  C   C35       1.0  0.31120  0.35131  0.78220  1.0000
  C   C36       1.0  0.68880  0.35131  0.21780  1.0000
  C   C37       1.0  0.18880  0.14869  0.21780  1.0000
  C   C38       1.0  0.81120  0.14869  0.78220  1.0000
  C   C39       1.0  0.68880  0.64869  0.21780  1.0000
  C   C40       1.0  0.31120  0.64869  0.78220  1.0000
  C   C41       1.0  0.80490  0.82100  0.68920  1.0000
  C   C42       1.0  0.19510  0.82100  0.31080  1.0000
  C   C43       1.0  0.30490  0.32100  0.68920  1.0000
  C   C44       1.0  0.69510  0.32100  0.31080  1.0000
  C   C45       1.0  0.19510  0.17900  0.31080  1.0000
  C   C46       1.0  0.80490  0.17900  0.68920  1.0000
  C   C47       1.0  0.69510  0.67900  0.31080  1.0000
  C   C48       1.0  0.30490  0.67900  0.68920  1.0000
  H   H17       1.0  0.84250  0.83540  0.67680  1.0000
  H   H18       1.0  0.15750  0.83540  0.32320  1.0000
  H   H19       1.0  0.34250  0.33540  0.67680  1.0000
  H   H20       1.0  0.65750  0.33540  0.32320  1.0000
  H   H21       1.0  0.15750  0.16460  0.32320  1.0000
  H   H22       1.0  0.84250  0.16460  0.67680  1.0000
  H   H23       1.0  0.65750  0.66460  0.32320  1.0000
  H   H24       1.0  0.34250  0.66460  0.67680  1.0000
  C   C49       1.0  0.61490  0.69295  0.54800  1.0000
  C   C50       1.0  0.38510  0.69295  0.45200  1.0000
  C   C51       1.0  0.11490  0.19295  0.54800  1.0000
  C   C52       1.0  0.88510  0.19295  0.45200  1.0000
  C   C53       1.0  0.38510  0.30705  0.45200  1.0000
  C   C54       1.0  0.61490  0.30705  0.54800  1.0000
  C   C55       1.0  0.88510  0.80705  0.45200  1.0000
  C   C56       1.0  0.11490  0.80705  0.54800  1.0000
  C   C57       1.0  0.87870  0.90710  0.86490  1.0000
  C   C58       1.0  0.12130  0.90710  0.13510  1.0000
  C   C59       1.0  0.37870  0.40710  0.86490  1.0000
  C   C60       1.0  0.62130  0.40710  0.13510  1.0000
  C   C61       1.0  0.12130  0.09290  0.13510  1.0000
  C   C62       1.0  0.87870  0.09290  0.86490  1.0000
  C   C63       1.0  0.62130  0.59290  0.13510  1.0000
  C   C64       1.0  0.37870  0.59290  0.86490  1.0000
  C   C65       1.0  0.48118  0.55242  0.28180  1.0000
  C   C66       1.0  0.51882  0.55242  0.71820  1.0000
  C   C67       1.0  0.98118  0.05242  0.28180  1.0000
  C   C68       1.0  0.01882  0.05242  0.71820  1.0000
  C   C69       1.0  0.51882  0.44758  0.71820  1.0000
  C   C70       1.0  0.48118  0.44758  0.28180  1.0000
  C   C71       1.0  0.01882  0.94758  0.71820  1.0000
  C   C72       1.0  0.98118  0.94758  0.28180  1.0000
  H   H25       1.0  0.47980  0.59730  0.26070  1.0000
  H   H26       1.0  0.52020  0.59730  0.73930  1.0000
  H   H27       1.0  0.97980  0.09730  0.26070  1.0000
  H   H28       1.0  0.02020  0.09730  0.73930  1.0000
  H   H29       1.0  0.52020  0.40270  0.73930  1.0000
  H   H30       1.0  0.47980  0.40270  0.26070  1.0000
  H   H31       1.0  0.02020  0.90270  0.73930  1.0000
  H   H32       1.0  0.97980  0.90270  0.26070  1.0000
