data_image0
_chemical_formula_structural       Zn4Na4O4C8O4C4O4C4H4C4H4C4H4C4H4O8C8H4C4H4C8O4C8H12C4H12C4O4C4O4C4
_chemical_formula_sum              "Zn4 Na4 O32 C72 H48"
_cell_length_a       13.854
_cell_length_b       13.9532
_cell_length_c       11.782
_cell_angle_alpha    90
_cell_angle_beta     111.079
_cell_angle_gamma    90

_space_group_name_H-M_alt    "P 1"
_space_group_IT_number       1

loop_
  _space_group_symop_operation_xyz
  'x, y, z'

loop_
  _atom_site_type_symbol
  _atom_site_label
  _atom_site_symmetry_multiplicity
  _atom_site_fract_x
  _atom_site_fract_y
  _atom_site_fract_z
  _atom_site_occupancy
  Zn  Zn1       1.0  0.00000  0.11436  0.25000  1.0000
  Zn  Zn2       1.0  0.00000  0.88564  0.75000  1.0000
  Zn  Zn3       1.0  0.50000  0.61939  0.25000  1.0000
  Zn  Zn4       1.0  0.50000  0.38061  0.75000  1.0000
  Na  Na1       1.0  0.00000  0.00000  0.50000  1.0000
  Na  Na2       1.0  0.00000  0.00000  0.00000  1.0000
  Na  Na3       1.0  0.50000  0.50000  0.00000  1.0000
  Na  Na4       1.0  0.50000  0.50000  0.50000  1.0000
  O   O1        1.0  0.60419  0.53596  0.36663  1.0000
  O   O2        1.0  0.39581  0.53596  0.13337  1.0000
  O   O3        1.0  0.39581  0.46404  0.63337  1.0000
  O   O4        1.0  0.60419  0.46404  0.86663  1.0000
  C   C1        1.0  0.65103  0.48390  0.31170  1.0000
  C   C2        1.0  0.34897  0.48390  0.18830  1.0000
  C   C3        1.0  0.34897  0.51610  0.68830  1.0000
  C   C4        1.0  0.65103  0.51610  0.81170  1.0000
  C   C5        1.0  0.23652  0.91238  0.40400  1.0000
  C   C6        1.0  0.76348  0.91238  0.09600  1.0000
  C   C7        1.0  0.76348  0.08762  0.59600  1.0000
  C   C8        1.0  0.23652  0.08762  0.90400  1.0000
  O   O5        1.0  0.13311  0.96264  0.20390  1.0000
  O   O6        1.0  0.86689  0.96264  0.29610  1.0000
  O   O7        1.0  0.86689  0.03736  0.79610  1.0000
  O   O8        1.0  0.13311  0.03736  0.70390  1.0000
  C   C9        1.0  0.73539  0.42105  0.39310  1.0000
  C   C10       1.0  0.26461  0.42105  0.10690  1.0000
  C   C11       1.0  0.26461  0.57895  0.60690  1.0000
  C   C12       1.0  0.73539  0.57895  0.89310  1.0000
  O   O9        1.0  0.63073  0.48516  0.20105  1.0000
  O   O10       1.0  0.36927  0.48516  0.29895  1.0000
  O   O11       1.0  0.36927  0.51484  0.79895  1.0000
  O   O12       1.0  0.63073  0.51484  0.70105  1.0000
  C   C13       1.0  0.29520  0.84823  0.36440  1.0000
  C   C14       1.0  0.70480  0.84823  0.13560  1.0000
  C   C15       1.0  0.70480  0.15177  0.63560  1.0000
  C   C16       1.0  0.29520  0.15177  0.86440  1.0000
  H   H1        1.0  0.28350  0.84270  0.28180  1.0000
  H   H2        1.0  0.71650  0.84270  0.21820  1.0000
  H   H3        1.0  0.71650  0.15730  0.71820  1.0000
  H   H4        1.0  0.28350  0.15730  0.78180  1.0000
  C   C17       1.0  0.25729  0.92070  0.52950  1.0000
  C   C18       1.0  0.74271  0.92070  0.97050  1.0000
  C   C19       1.0  0.74271  0.07930  0.47050  1.0000
  C   C20       1.0  0.25729  0.07930  0.02950  1.0000
  H   H5        1.0  0.21870  0.96350  0.55640  1.0000
  H   H6        1.0  0.78130  0.96350  0.94360  1.0000
  H   H7        1.0  0.78130  0.03650  0.44360  1.0000
  H   H8        1.0  0.21870  0.03650  0.05640  1.0000
  C   C21       1.0  0.76120  0.42180  0.51930  1.0000
  C   C22       1.0  0.23880  0.42180  0.98070  1.0000
  C   C23       1.0  0.23880  0.57820  0.48070  1.0000
  C   C24       1.0  0.76120  0.57820  0.01930  1.0000
  H   H9        1.0  0.72730  0.46410  0.55340  1.0000
  H   H10       1.0  0.27270  0.46410  0.94660  1.0000
  H   H11       1.0  0.27270  0.53590  0.44660  1.0000
  H   H12       1.0  0.72730  0.53590  0.05340  1.0000
  C   C25       1.0  0.78650  0.35770  0.34140  1.0000
  C   C26       1.0  0.21350  0.35770  0.15860  1.0000
  C   C27       1.0  0.21350  0.64230  0.65860  1.0000
  C   C28       1.0  0.78650  0.64230  0.84140  1.0000
  H   H13       1.0  0.77090  0.35770  0.25780  1.0000
  H   H14       1.0  0.22910  0.35770  0.24220  1.0000
  H   H15       1.0  0.22910  0.64230  0.74220  1.0000
  H   H16       1.0  0.77090  0.64230  0.75780  1.0000
  O   O13       1.0  0.41248  0.71412  0.29423  1.0000
  O   O14       1.0  0.58752  0.71412  0.20577  1.0000
  O   O15       1.0  0.58752  0.28588  0.70577  1.0000
  O   O16       1.0  0.41248  0.28588  0.79423  1.0000
  O   O17       1.0  0.88708  0.22197  0.24570  1.0000
  O   O18       1.0  0.11292  0.22197  0.25430  1.0000
  O   O19       1.0  0.11292  0.77803  0.75430  1.0000
  O   O20       1.0  0.88708  0.77803  0.74570  1.0000
  C   C29       1.0  0.33380  0.86670  0.61450  1.0000
  C   C30       1.0  0.66620  0.86670  0.88550  1.0000
  C   C31       1.0  0.66620  0.13330  0.38550  1.0000
  C   C32       1.0  0.33380  0.13330  0.11450  1.0000
  C   C33       1.0  0.38920  0.80090  0.57140  1.0000
  C   C34       1.0  0.61080  0.80090  0.92860  1.0000
  C   C35       1.0  0.61080  0.19910  0.42860  1.0000
  C   C36       1.0  0.38920  0.19910  0.07140  1.0000
  H   H17       1.0  0.43890  0.76220  0.62650  1.0000
  H   H18       1.0  0.56110  0.76220  0.87350  1.0000
  H   H19       1.0  0.56110  0.23780  0.37350  1.0000
  H   H20       1.0  0.43890  0.23780  0.12650  1.0000
  C   C37       1.0  0.88410  0.29650  0.54080  1.0000
  C   C38       1.0  0.11590  0.29650  0.95920  1.0000
  C   C39       1.0  0.11590  0.70350  0.45920  1.0000
  C   C40       1.0  0.88410  0.70350  0.04080  1.0000
  H   H21       1.0  0.93290  0.25370  0.58960  1.0000
  H   H22       1.0  0.06710  0.25370  0.91040  1.0000
  H   H23       1.0  0.06710  0.74630  0.41040  1.0000
  H   H24       1.0  0.93290  0.74630  0.08960  1.0000
  C   C41       1.0  0.83630  0.36080  0.59500  1.0000
  C   C42       1.0  0.16370  0.36080  0.90500  1.0000
  C   C43       1.0  0.16370  0.63920  0.40500  1.0000
  C   C44       1.0  0.83630  0.63920  0.09500  1.0000
  C   C45       1.0  0.37100  0.79254  0.44830  1.0000
  C   C46       1.0  0.62900  0.79254  0.05170  1.0000
  C   C47       1.0  0.62900  0.20746  0.55170  1.0000
  C   C48       1.0  0.37100  0.20746  0.94830  1.0000
  O   O21       1.0  0.50386  0.67510  0.48520  1.0000
  O   O22       1.0  0.49614  0.67510  0.01480  1.0000
  O   O23       1.0  0.49614  0.32490  0.51480  1.0000
  O   O24       1.0  0.50386  0.32490  0.98520  1.0000
  C   C49       1.0  0.86024  0.29502  0.41490  1.0000
  C   C50       1.0  0.13976  0.29502  0.08510  1.0000
  C   C51       1.0  0.13976  0.70498  0.58510  1.0000
  C   C52       1.0  0.86024  0.70498  0.91490  1.0000
  C   C53       1.0  0.35480  0.87620  0.74880  1.0000
  C   C54       1.0  0.64520  0.87620  0.75120  1.0000
  C   C55       1.0  0.64520  0.12380  0.25120  1.0000
  C   C56       1.0  0.35480  0.12380  0.24880  1.0000
  H   H25       1.0  0.31010  0.92420  0.76150  1.0000
  H   H26       1.0  0.68990  0.92420  0.73850  1.0000
  H   H27       1.0  0.68990  0.07580  0.23850  1.0000
  H   H28       1.0  0.31010  0.07580  0.26150  1.0000
  H   H29       1.0  0.42560  0.89450  0.79020  1.0000
  H   H30       1.0  0.57440  0.89450  0.70980  1.0000
  H   H31       1.0  0.57440  0.10550  0.20980  1.0000
  H   H32       1.0  0.42560  0.10550  0.29020  1.0000
  H   H33       1.0  0.34200  0.81590  0.78000  1.0000
  H   H34       1.0  0.65800  0.81590  0.72000  1.0000
  H   H35       1.0  0.65800  0.18410  0.22000  1.0000
  H   H36       1.0  0.34200  0.18410  0.28000  1.0000
  C   C57       1.0  0.86130  0.36160  0.72960  1.0000
  C   C58       1.0  0.13870  0.36160  0.77040  1.0000
  C   C59       1.0  0.13870  0.63840  0.27040  1.0000
  C   C60       1.0  0.86130  0.63840  0.22960  1.0000
  H   H37       1.0  0.82100  0.41020  0.74970  1.0000
  H   H38       1.0  0.17900  0.41020  0.75030  1.0000
  H   H39       1.0  0.17900  0.58980  0.25030  1.0000
  H   H40       1.0  0.82100  0.58980  0.24970  1.0000
  H   H41       1.0  0.93350  0.37500  0.77030  1.0000
  H   H42       1.0  0.06650  0.37500  0.72970  1.0000
  H   H43       1.0  0.06650  0.62500  0.22970  1.0000
  H   H44       1.0  0.93350  0.62500  0.27030  1.0000
  H   H45       1.0  0.84530  0.30020  0.75510  1.0000
  H   H46       1.0  0.15470  0.30020  0.74490  1.0000
  H   H47       1.0  0.15470  0.69980  0.24490  1.0000
  H   H48       1.0  0.84530  0.69980  0.25510  1.0000
  C   C61       1.0  0.43360  0.72167  0.40840  1.0000
  C   C62       1.0  0.56640  0.72167  0.09160  1.0000
  C   C63       1.0  0.56640  0.27833  0.59160  1.0000
  C   C64       1.0  0.43360  0.27833  0.90840  1.0000
  O   O25       1.0  0.10271  0.02544  0.36198  1.0000
  O   O26       1.0  0.89729  0.02544  0.13802  1.0000
  O   O27       1.0  0.89729  0.97456  0.63802  1.0000
  O   O28       1.0  0.10271  0.97456  0.86198  1.0000
  C   C65       1.0  0.15094  0.96977  0.31380  1.0000
  C   C66       1.0  0.84906  0.96977  0.18620  1.0000
  C   C67       1.0  0.84906  0.03023  0.68620  1.0000
  C   C68       1.0  0.15094  0.03023  0.81380  1.0000
  O   O29       1.0  0.97705  0.16666  0.42670  1.0000
  O   O30       1.0  0.02295  0.16666  0.07330  1.0000
  O   O31       1.0  0.02295  0.83334  0.57330  1.0000
  O   O32       1.0  0.97705  0.83334  0.92670  1.0000
  C   C69       1.0  0.91120  0.22340  0.36030  1.0000
  C   C70       1.0  0.08880  0.22340  0.13970  1.0000
  C   C71       1.0  0.08880  0.77660  0.63970  1.0000
  C   C72       1.0  0.91120  0.77660  0.86030  1.0000
