data_image0
_chemical_formula_structural       Zn4K4O20C4O12C8H4C8H4C8H4C12H4C16H4C8H4C4H12C4H12
_chemical_formula_sum              "Zn4 K4 O32 C72 H48"
_cell_length_a       13.91
_cell_length_b       14.0109
_cell_length_c       12.367
_cell_angle_alpha    90
_cell_angle_beta     111.505
_cell_angle_gamma    90

_space_group_name_H-M_alt    "P 1"
_space_group_IT_number       1

loop_
  _space_group_symop_operation_xyz
  'x, y, z'

loop_
  _atom_site_type_symbol
  _atom_site_label
  _atom_site_symmetry_multiplicity
  _atom_site_fract_x
  _atom_site_fract_y
  _atom_site_fract_z
  _atom_site_occupancy
  Zn  Zn1       1.0  0.00000  0.37962  0.75000  1.0000
  Zn  Zn2       1.0  0.00000  0.62038  0.25000  1.0000
  Zn  Zn3       1.0  0.50000  0.86884  0.75000  1.0000
  Zn  Zn4       1.0  0.50000  0.13116  0.25000  1.0000
  K   K1        1.0  0.50000  0.00000  1.00000  1.0000
  K   K2        1.0  0.50000  0.00000  0.50000  1.0000
  K   K3        1.0  1.00000  0.50000  0.50000  1.0000
  K   K4        1.0  0.00000  0.50000  0.00000  1.0000
  O   O1        1.0  0.10778  0.46564  0.85688  1.0000
  O   O2        1.0  0.89222  0.46564  0.64312  1.0000
  O   O3        1.0  0.89222  0.53436  0.14312  1.0000
  O   O4        1.0  0.10778  0.53436  0.35688  1.0000
  O   O5        1.0  0.03074  0.32329  0.60477  1.0000
  O   O6        1.0  0.96926  0.32329  0.89523  1.0000
  O   O7        1.0  0.96926  0.67671  0.39523  1.0000
  O   O8        1.0  0.03074  0.67671  0.10477  1.0000
  O   O9        1.0  0.39149  0.94859  0.63525  1.0000
  O   O10       1.0  0.60851  0.94859  0.86475  1.0000
  O   O11       1.0  0.60851  0.05141  0.36475  1.0000
  O   O12       1.0  0.39149  0.05141  0.13525  1.0000
  O   O13       1.0  0.41873  0.77612  0.80249  1.0000
  O   O14       1.0  0.58127  0.77612  0.69751  1.0000
  O   O15       1.0  0.58127  0.22388  0.19751  1.0000
  O   O16       1.0  0.41873  0.22388  0.30249  1.0000
  O   O17       1.0  0.12143  0.25831  0.77078  1.0000
  O   O18       1.0  0.87857  0.25831  0.72922  1.0000
  O   O19       1.0  0.87857  0.74169  0.22922  1.0000
  O   O20       1.0  0.12143  0.74169  0.27078  1.0000
  C   C1        1.0  0.09610  0.26316  0.66230  1.0000
  C   C2        1.0  0.90390  0.26316  0.83770  1.0000
  C   C3        1.0  0.90390  0.73684  0.33770  1.0000
  C   C4        1.0  0.09610  0.73684  0.16230  1.0000
  O   O21       1.0  0.51523  0.80808  0.98543  1.0000
  O   O22       1.0  0.48477  0.80808  0.51457  1.0000
  O   O23       1.0  0.48477  0.19192  0.01457  1.0000
  O   O24       1.0  0.51523  0.19192  0.48543  1.0000
  O   O25       1.0  0.36347  0.99688  0.79185  1.0000
  O   O26       1.0  0.63653  0.99688  0.70815  1.0000
  O   O27       1.0  0.63653  0.00312  0.20815  1.0000
  O   O28       1.0  0.36347  0.00312  0.29185  1.0000
  O   O29       1.0  0.13854  0.53687  0.71159  1.0000
  O   O30       1.0  0.86146  0.53687  0.78841  1.0000
  O   O31       1.0  0.86146  0.46313  0.28841  1.0000
  O   O32       1.0  0.13854  0.46313  0.21159  1.0000
  C   C5        1.0  0.44160  0.76645  0.91100  1.0000
  C   C6        1.0  0.55840  0.76645  0.58900  1.0000
  C   C7        1.0  0.55840  0.23355  0.08900  1.0000
  C   C8        1.0  0.44160  0.23355  0.41100  1.0000
  C   C9        1.0  0.25609  0.57742  0.02290  1.0000
  C   C10       1.0  0.74391  0.57742  0.47710  1.0000
  C   C11       1.0  0.74391  0.42258  0.97710  1.0000
  C   C12       1.0  0.25609  0.42258  0.52290  1.0000
  H   H1        1.0  0.21640  0.53560  0.04760  1.0000
  H   H2        1.0  0.78360  0.53560  0.45240  1.0000
  H   H3        1.0  0.78360  0.46440  0.95240  1.0000
  H   H4        1.0  0.21640  0.46440  0.54760  1.0000
  C   C13       1.0  0.37530  0.69990  0.94870  1.0000
  C   C14       1.0  0.62470  0.69990  0.55130  1.0000
  C   C15       1.0  0.62470  0.30010  0.05130  1.0000
  C   C16       1.0  0.37530  0.30010  0.44870  1.0000
  C   C17       1.0  0.11980  0.20087  0.48180  1.0000
  C   C18       1.0  0.88020  0.20087  0.01820  1.0000
  C   C19       1.0  0.88020  0.79913  0.51820  1.0000
  C   C20       1.0  0.11980  0.79913  0.98180  1.0000
  H   H5        1.0  0.07120  0.24520  0.43830  1.0000
  H   H6        1.0  0.92880  0.24520  0.06170  1.0000
  H   H7        1.0  0.92880  0.75480  0.56170  1.0000
  H   H8        1.0  0.07120  0.75480  0.93830  1.0000
  C   C21       1.0  0.15532  0.52524  0.81550  1.0000
  C   C22       1.0  0.84468  0.52524  0.68450  1.0000
  C   C23       1.0  0.84468  0.47476  0.18450  1.0000
  C   C24       1.0  0.15532  0.47476  0.31550  1.0000
  C   C25       1.0  0.39000  0.69369  0.06620  1.0000
  C   C26       1.0  0.61000  0.69369  0.43380  1.0000
  C   C27       1.0  0.61000  0.30631  0.93380  1.0000
  C   C28       1.0  0.39000  0.30631  0.56620  1.0000
  H   H9        1.0  0.44020  0.73140  0.11950  1.0000
  H   H10       1.0  0.55980  0.73140  0.38050  1.0000
  H   H11       1.0  0.55980  0.26860  0.88050  1.0000
  H   H12       1.0  0.44020  0.26860  0.61950  1.0000
  C   C29       1.0  0.14450  0.19618  0.60190  1.0000
  C   C30       1.0  0.85550  0.19618  0.89810  1.0000
  C   C31       1.0  0.85550  0.80382  0.39810  1.0000
  C   C32       1.0  0.14450  0.80382  0.10190  1.0000
  C   C33       1.0  0.23863  0.58344  0.90480  1.0000
  C   C34       1.0  0.76137  0.58344  0.59520  1.0000
  C   C35       1.0  0.76137  0.41656  0.09520  1.0000
  C   C36       1.0  0.23863  0.41656  0.40480  1.0000
  C   C37       1.0  0.29960  0.64508  0.86860  1.0000
  C   C38       1.0  0.70040  0.64508  0.63140  1.0000
  C   C39       1.0  0.70040  0.35492  0.13140  1.0000
  C   C40       1.0  0.29960  0.35492  0.36860  1.0000
  H   H13       1.0  0.28930  0.64940  0.79010  1.0000
  H   H14       1.0  0.71070  0.64940  0.70990  1.0000
  H   H15       1.0  0.71070  0.35060  0.20990  1.0000
  H   H16       1.0  0.28930  0.35060  0.29010  1.0000
  C   C41       1.0  0.26480  0.06911  0.61280  1.0000
  C   C42       1.0  0.73520  0.06911  0.88720  1.0000
  C   C43       1.0  0.73520  0.93089  0.38720  1.0000
  C   C44       1.0  0.26480  0.93089  0.11280  1.0000
  C   C45       1.0  0.34528  0.00081  0.68700  1.0000
  C   C46       1.0  0.65472  0.00081  0.81300  1.0000
  C   C47       1.0  0.65472  0.99919  0.31300  1.0000
  C   C48       1.0  0.34528  0.99919  0.18700  1.0000
  C   C49       1.0  0.16630  0.14070  0.42600  1.0000
  C   C50       1.0  0.83370  0.14070  0.07400  1.0000
  C   C51       1.0  0.83370  0.85930  0.57400  1.0000
  C   C52       1.0  0.16630  0.85930  0.92600  1.0000
  C   C53       1.0  0.23920  0.07500  0.49300  1.0000
  C   C54       1.0  0.76080  0.07500  0.00700  1.0000
  C   C55       1.0  0.76080  0.92500  0.50700  1.0000
  C   C56       1.0  0.23920  0.92500  0.99300  1.0000
  H   H17       1.0  0.27120  0.03450  0.45700  1.0000
  H   H18       1.0  0.72880  0.03450  0.04300  1.0000
  H   H19       1.0  0.72880  0.96550  0.54300  1.0000
  H   H20       1.0  0.27120  0.96550  0.95700  1.0000
  C   C57       1.0  0.33120  0.63230  0.10520  1.0000
  C   C58       1.0  0.66880  0.63230  0.39480  1.0000
  C   C59       1.0  0.66880  0.36770  0.89480  1.0000
  C   C60       1.0  0.33120  0.36770  0.60520  1.0000
  C   C61       1.0  0.21620  0.12967  0.66610  1.0000
  C   C62       1.0  0.78380  0.12967  0.83390  1.0000
  C   C63       1.0  0.78380  0.87033  0.33390  1.0000
  C   C64       1.0  0.21620  0.87033  0.16610  1.0000
  H   H21       1.0  0.23210  0.12530  0.74590  1.0000
  H   H22       1.0  0.76790  0.12530  0.75410  1.0000
  H   H23       1.0  0.76790  0.87470  0.25410  1.0000
  H   H24       1.0  0.23210  0.87470  0.24590  1.0000
  C   C65       1.0  0.34800  0.62420  0.23260  1.0000
  C   C66       1.0  0.65200  0.62420  0.26740  1.0000
  C   C67       1.0  0.65200  0.37580  0.76740  1.0000
  C   C68       1.0  0.34800  0.37580  0.73260  1.0000
  H   H25       1.0  0.40220  0.66690  0.27660  1.0000
  H   H26       1.0  0.59780  0.66690  0.22340  1.0000
  H   H27       1.0  0.59780  0.33310  0.72340  1.0000
  H   H28       1.0  0.40220  0.33310  0.77660  1.0000
  H   H29       1.0  0.36700  0.55980  0.25820  1.0000
  H   H30       1.0  0.63300  0.55980  0.24180  1.0000
  H   H31       1.0  0.63300  0.44020  0.74180  1.0000
  H   H32       1.0  0.36700  0.44020  0.75820  1.0000
  H   H33       1.0  0.28530  0.64070  0.24390  1.0000
  H   H34       1.0  0.71470  0.64070  0.25610  1.0000
  H   H35       1.0  0.71470  0.35930  0.75610  1.0000
  H   H36       1.0  0.28530  0.35930  0.74390  1.0000
  C   C69       1.0  0.14250  0.14650  0.29720  1.0000
  C   C70       1.0  0.85750  0.14650  0.20280  1.0000
  C   C71       1.0  0.85750  0.85350  0.70280  1.0000
  C   C72       1.0  0.14250  0.85350  0.79720  1.0000
  H   H37       1.0  0.18230  0.09950  0.27550  1.0000
  H   H38       1.0  0.81770  0.09950  0.22450  1.0000
  H   H39       1.0  0.81770  0.90050  0.72450  1.0000
  H   H40       1.0  0.18230  0.90050  0.77550  1.0000
  H   H41       1.0  0.15970  0.20890  0.27790  1.0000
  H   H42       1.0  0.84030  0.20890  0.22210  1.0000
  H   H43       1.0  0.84030  0.79110  0.72210  1.0000
  H   H44       1.0  0.15970  0.79110  0.77790  1.0000
  H   H45       1.0  0.07020  0.13470  0.25600  1.0000
  H   H46       1.0  0.92980  0.13470  0.24400  1.0000
  H   H47       1.0  0.92980  0.86530  0.74400  1.0000
  H   H48       1.0  0.07020  0.86530  0.75600  1.0000
