data_image0
_chemical_formula_structural       U8O44C4H4C4H4C2H2C2H4C2H4C2H2C2H4C2H4C8H4C4H4C2H2C2H4C2H4C2H2C2H4C2H4C8H4C4H4C2H2C2H4C2H4C2H2C2H4C2H4C4
_chemical_formula_sum              "U8 O44 C72 H84"
_cell_length_a       14.0975
_cell_length_b       14.5802
_cell_length_c       20.5052
_cell_angle_alpha    102.939
_cell_angle_beta     97.3018
_cell_angle_gamma    114.308

_space_group_name_H-M_alt    "P 1"
_space_group_IT_number       1

loop_
  _space_group_symop_operation_xyz
  'x, y, z'

loop_
  _atom_site_type_symbol
  _atom_site_label
  _atom_site_symmetry_multiplicity
  _atom_site_fract_x
  _atom_site_fract_y
  _atom_site_fract_z
  _atom_site_occupancy
  U   U1        1.0  0.14021  0.09614  0.52623  1.0000
  U   U2        1.0  0.85979  0.90386  0.47377  1.0000
  U   U3        1.0  0.09985  0.82031  0.52714  1.0000
  U   U4        1.0  0.90015  0.17969  0.47286  1.0000
  U   U5        1.0  0.47567  0.93179  0.90929  1.0000
  U   U6        1.0  0.52433  0.06821  0.09071  1.0000
  U   U7        1.0  0.48259  0.20153  0.93797  1.0000
  U   U8        1.0  0.51741  0.79847  0.06203  1.0000
  O   O1        1.0  0.13060  0.14590  0.61198  1.0000
  O   O2        1.0  0.86940  0.85410  0.38802  1.0000
  O   O3        1.0  0.15920  0.05070  0.44299  1.0000
  O   O4        1.0  0.84080  0.94930  0.55701  1.0000
  O   O5        1.0  0.07350  0.81750  0.60894  1.0000
  O   O6        1.0  0.92650  0.18250  0.39106  1.0000
  O   O7        1.0  0.12930  0.81650  0.44525  1.0000
  O   O8        1.0  0.87070  0.18350  0.55475  1.0000
  O   O9        1.0  0.33650  0.89810  0.89332  1.0000
  O   O10       1.0  0.66350  0.10190  0.10668  1.0000
  O   O11       1.0  0.61450  0.96490  0.91689  1.0000
  O   O12       1.0  0.38550  0.03510  0.08311  1.0000
  O   O13       1.0  0.34200  0.12420  0.92436  1.0000
  O   O14       1.0  0.65800  0.87580  0.07564  1.0000
  O   O15       1.0  0.62190  0.28450  0.95130  1.0000
  O   O16       1.0  0.37810  0.71550  0.04870  1.0000
  O   O17       1.0  0.24240  0.00270  0.57334  1.0000
  O   O18       1.0  0.75760  0.99730  0.42666  1.0000
  O   O19       1.0  0.33550  0.16710  0.57677  1.0000
  O   O20       1.0  0.66450  0.83290  0.42323  1.0000
  O   O21       1.0  0.49170  0.06990  0.84530  1.0000
  O   O22       1.0  0.50830  0.93010  0.15470  1.0000
  O   O23       1.0  0.46770  0.91550  0.78591  1.0000
  O   O24       1.0  0.53230  0.08450  0.21409  1.0000
  O   O25       1.0  0.21140  0.26750  0.51235  1.0000
  O   O26       1.0  0.78860  0.73250  0.48765  1.0000
  O   O27       1.0  0.07800  0.30820  0.52606  1.0000
  O   O28       1.0  0.92200  0.69180  0.47394  1.0000
  O   O29       1.0  0.25710  0.78850  0.55892  1.0000
  O   O30       1.0  0.74290  0.21150  0.44108  1.0000
  O   O31       1.0  0.09990  0.65080  0.51083  1.0000
  O   O32       1.0  0.90010  0.34920  0.48917  1.0000
  O   O33       1.0  0.42000  0.74700  0.86578  1.0000
  O   O34       1.0  0.58000  0.25300  0.13422  1.0000
  O   O35       1.0  0.50780  0.71560  0.94811  1.0000
  O   O36       1.0  0.49220  0.28440  0.05189  1.0000
  O   O37       1.0  0.44920  0.35250  0.93305  1.0000
  O   O38       1.0  0.55080  0.64750  0.06695  1.0000
  O   O39       1.0  0.44140  0.25180  0.83387  1.0000
  O   O40       1.0  0.55860  0.74820  0.16613  1.0000
  O   O41       1.0  0.02500  0.92770  0.51827  1.0000
  O   O42       1.0  0.97500  0.07230  0.48173  1.0000
  O   O43       1.0  0.48380  0.90910  0.01495  1.0000
  O   O44       1.0  0.51620  0.09090  0.98505  1.0000
  C   C1        1.0  0.43260  0.08850  0.62828  1.0000
  C   C2        1.0  0.56740  0.91150  0.37172  1.0000
  C   C3        1.0  0.41250  0.04930  0.69133  1.0000
  C   C4        1.0  0.58750  0.95070  0.30867  1.0000
  H   H1        1.0  0.39360  0.09670  0.72380  1.0000
  H   H2        1.0  0.60640  0.90330  0.27620  1.0000
  H   H3        1.0  0.35150  0.97740  0.67620  1.0000
  H   H4        1.0  0.64850  0.02260  0.32380  1.0000
  C   C5        1.0  0.51300  0.04760  0.72764  1.0000
  C   C6        1.0  0.48700  0.95240  0.27236  1.0000
  C   C7        1.0  0.60710  0.16040  0.75160  1.0000
  C   C8        1.0  0.39290  0.83960  0.24840  1.0000
  H   H5        1.0  0.58940  0.20860  0.78410  1.0000
  H   H6        1.0  0.41060  0.79140  0.21590  1.0000
  H   H7        1.0  0.67250  0.16030  0.77580  1.0000
  H   H8        1.0  0.32750  0.83970  0.22420  1.0000
  C   C9        1.0  0.62780  0.19870  0.68860  1.0000
  C   C10       1.0  0.37220  0.80130  0.31140  1.0000
  H   H9        1.0  0.68910  0.27160  0.70410  1.0000
  H   H10       1.0  0.31090  0.72840  0.29590  1.0000
  C   C11       1.0  0.52750  0.20070  0.65250  1.0000
  C   C12       1.0  0.47250  0.79930  0.34750  1.0000
  H   H11       1.0  0.54090  0.22680  0.61230  1.0000
  H   H12       1.0  0.45910  0.77320  0.38770  1.0000
  H   H13       1.0  0.50980  0.24940  0.68470  1.0000
  H   H14       1.0  0.49020  0.75060  0.31530  1.0000
  C   C13       1.0  0.46270  0.01530  0.57790  1.0000
  C   C14       1.0  0.53730  0.98470  0.42210  1.0000
  H   H15       1.0  0.40210  0.94300  0.56090  1.0000
  H   H16       1.0  0.59790  0.05700  0.43910  1.0000
  H   H17       1.0  0.47640  0.04110  0.53760  1.0000
  H   H18       1.0  0.52360  0.95890  0.46240  1.0000
  C   C15       1.0  0.56320  0.01250  0.61400  1.0000
  C   C16       1.0  0.43680  0.98750  0.38600  1.0000
  H   H19       1.0  0.58150  0.96410  0.58100  1.0000
  H   H20       1.0  0.41850  0.03590  0.41900  1.0000
  C   C17       1.0  0.54070  0.97210  0.67610  1.0000
  C   C18       1.0  0.45930  0.02790  0.32390  1.0000
  H   H21       1.0  0.60470  0.96880  0.69940  1.0000
  H   H22       1.0  0.39530  0.03120  0.30060  1.0000
  H   H23       1.0  0.48000  0.89990  0.66020  1.0000
  H   H24       1.0  0.52000  0.10010  0.33980  1.0000
  C   C19       1.0  0.65670  0.12360  0.63870  1.0000
  C   C20       1.0  0.34330  0.87640  0.36130  1.0000
  H   H25       1.0  0.67250  0.14920  0.59860  1.0000
  H   H26       1.0  0.32750  0.85080  0.40140  1.0000
  H   H27       1.0  0.72170  0.12240  0.66250  1.0000
  H   H28       1.0  0.27830  0.87760  0.33750  1.0000
  C   C21       1.0  0.33300  0.08770  0.59110  1.0000
  C   C22       1.0  0.66700  0.91230  0.40890  1.0000
  C   C23       1.0  0.48930  0.00800  0.78910  1.0000
  C   C24       1.0  0.51070  0.99200  0.21090  1.0000
  C   C25       1.0  0.23380  0.43550  0.50320  1.0000
  C   C26       1.0  0.76620  0.56450  0.49680  1.0000
  C   C27       1.0  0.19000  0.51420  0.52740  1.0000
  C   C28       1.0  0.81000  0.48580  0.47260  1.0000
  H   H29       1.0  0.19690  0.52980  0.57780  1.0000
  H   H30       1.0  0.80310  0.47020  0.42220  1.0000
  H   H31       1.0  0.11290  0.48280  0.50400  1.0000
  H   H32       1.0  0.88710  0.51720  0.49600  1.0000
  C   C29       1.0  0.25250  0.61670  0.51060  1.0000
  C   C30       1.0  0.74750  0.38330  0.48940  1.0000
  C   C31       1.0  0.37250  0.66570  0.54600  1.0000
  C   C32       1.0  0.62750  0.33430  0.45400  1.0000
  H   H33       1.0  0.41280  0.73090  0.53420  1.0000
  H   H34       1.0  0.58720  0.26910  0.46580  1.0000
  H   H35       1.0  0.38280  0.68450  0.59680  1.0000
  H   H36       1.0  0.61720  0.31550  0.40320  1.0000
  C   C33       1.0  0.41450  0.58680  0.52210  1.0000
  C   C34       1.0  0.58550  0.41320  0.47790  1.0000
  H   H37       1.0  0.49230  0.61850  0.54580  1.0000
  H   H38       1.0  0.50770  0.38150  0.45420  1.0000
  C   C35       1.0  0.35340  0.48430  0.53900  1.0000
  C   C36       1.0  0.64660  0.51570  0.46100  1.0000
  H   H39       1.0  0.36290  0.49940  0.58960  1.0000
  H   H40       1.0  0.63710  0.50060  0.41040  1.0000
  H   H41       1.0  0.38220  0.43410  0.52300  1.0000
  H   H42       1.0  0.61780  0.56590  0.47700  1.0000
  C   C37       1.0  0.22060  0.41110  0.42360  1.0000
  C   C38       1.0  0.77940  0.58890  0.57640  1.0000
  H   H43       1.0  0.24730  0.35940  0.40680  1.0000
  H   H44       1.0  0.75270  0.64060  0.59320  1.0000
  H   H45       1.0  0.14370  0.38000  0.39980  1.0000
  H   H46       1.0  0.85630  0.62000  0.60020  1.0000
  C   C39       1.0  0.28380  0.51310  0.40750  1.0000
  C   C40       1.0  0.71620  0.48690  0.59250  1.0000
  H   H47       1.0  0.27560  0.49710  0.35650  1.0000
  H   H48       1.0  0.72440  0.50290  0.64350  1.0000
  C   C41       1.0  0.23910  0.59060  0.43170  1.0000
  C   C42       1.0  0.76090  0.40940  0.56830  1.0000
  H   H49       1.0  0.16210  0.55890  0.40800  1.0000
  H   H50       1.0  0.83790  0.44110  0.59200  1.0000
  H   H51       1.0  0.27790  0.65620  0.41980  1.0000
  H   H52       1.0  0.72210  0.34380  0.58020  1.0000
  C   C43       1.0  0.40220  0.56170  0.44330  1.0000
  C   C44       1.0  0.59780  0.43830  0.55670  1.0000
  H   H53       1.0  0.44280  0.62730  0.43190  1.0000
  H   H54       1.0  0.55720  0.37270  0.56810  1.0000
  H   H55       1.0  0.43140  0.51170  0.42740  1.0000
  H   H56       1.0  0.56860  0.48830  0.57260  1.0000
  C   C45       1.0  0.17170  0.33070  0.51580  1.0000
  C   C46       1.0  0.82830  0.66930  0.48420  1.0000
  C   C47       1.0  0.20170  0.68960  0.52940  1.0000
  C   C48       1.0  0.79830  0.31040  0.47060  1.0000
  C   C49       1.0  0.40430  0.57390  0.84330  1.0000
  C   C50       1.0  0.59570  0.42610  0.15670  1.0000
  C   C51       1.0  0.44180  0.50840  0.87960  1.0000
  C   C52       1.0  0.55820  0.49160  0.12040  1.0000
  H   H57       1.0  0.52120  0.54150  0.89230  1.0000
  H   H58       1.0  0.47880  0.45850  0.10770  1.0000
  H   H59       1.0  0.41650  0.50700  0.92240  1.0000
  H   H60       1.0  0.58350  0.49300  0.07760  1.0000
  C   C53       1.0  0.39700  0.39540  0.83140  1.0000
  C   C54       1.0  0.60300  0.60460  0.16860  1.0000
  C   C55       1.0  0.27510  0.34440  0.81090  1.0000
  C   C56       1.0  0.72490  0.65560  0.18910  1.0000
  H   H61       1.0  0.24700  0.34100  0.85260  1.0000
  H   H62       1.0  0.75300  0.65900  0.14740  1.0000
  H   H63       1.0  0.24670  0.27130  0.77990  1.0000
  H   H64       1.0  0.75330  0.72870  0.22010  1.0000
  C   C57       1.0  0.23740  0.40860  0.77390  1.0000
  C   C58       1.0  0.76260  0.59140  0.22610  1.0000
  H   H65       1.0  0.15710  0.37480  0.76090  1.0000
  H   H66       1.0  0.84290  0.62520  0.23910  1.0000
  C   C59       1.0  0.28200  0.52180  0.82350  1.0000
  C   C60       1.0  0.71800  0.47820  0.17650  1.0000
  H   H67       1.0  0.25730  0.56400  0.80070  1.0000
  H   H68       1.0  0.74270  0.43600  0.19930  1.0000
  H   H69       1.0  0.25460  0.51930  0.86550  1.0000
  H   H70       1.0  0.74540  0.48070  0.13450  1.0000
  C   C61       1.0  0.44510  0.57710  0.77730  1.0000
  C   C62       1.0  0.55490  0.42290  0.22270  1.0000
  H   H71       1.0  0.42080  0.61860  0.75360  1.0000
  H   H72       1.0  0.57920  0.38140  0.24640  1.0000
  H   H73       1.0  0.52460  0.61160  0.78940  1.0000
  H   H74       1.0  0.47540  0.38840  0.21060  1.0000
  C   C63       1.0  0.40120  0.46370  0.72920  1.0000
  C   C64       1.0  0.59880  0.53630  0.27080  1.0000
  H   H75       1.0  0.42810  0.46550  0.68640  1.0000
  H   H76       1.0  0.57190  0.53450  0.31360  1.0000
  C   C65       1.0  0.43650  0.39700  0.76500  1.0000
  C   C66       1.0  0.56350  0.60300  0.23500  1.0000
  H   H77       1.0  0.51580  0.42730  0.77640  1.0000
  H   H78       1.0  0.48420  0.57270  0.22360  1.0000
  H   H79       1.0  0.40630  0.32400  0.73360  1.0000
  H   H80       1.0  0.59370  0.67600  0.26640  1.0000
  C   C67       1.0  0.27940  0.41340  0.70990  1.0000
  C   C68       1.0  0.72060  0.58660  0.29010  1.0000
  H   H81       1.0  0.25540  0.45530  0.68650  1.0000
  H   H82       1.0  0.74460  0.54470  0.31350  1.0000
  H   H83       1.0  0.25020  0.34110  0.67760  1.0000
  H   H84       1.0  0.74980  0.65890  0.32240  1.0000
  C   C69       1.0  0.44780  0.68680  0.88930  1.0000
  C   C70       1.0  0.55220  0.31320  0.11070  1.0000
  C   C71       1.0  0.43170  0.33010  0.86750  1.0000
  C   C72       1.0  0.56830  0.66990  0.13250  1.0000
