data_image0
_chemical_formula_structural       CdCl2S2O2C2H4CdS2O2C2H4O8
_chemical_formula_sum              "Cd2 Cl2 S4 O12 C4 H8"
_cell_length_a       8.0898
_cell_length_b       8.7429
_cell_length_c       9.3861
_cell_angle_alpha    113.63
_cell_angle_beta     100.423
_cell_angle_gamma    106.839

_space_group_name_H-M_alt    "P 1"
_space_group_IT_number       1

loop_
  _space_group_symop_operation_xyz
  'x, y, z'

loop_
  _atom_site_type_symbol
  _atom_site_label
  _atom_site_symmetry_multiplicity
  _atom_site_fract_x
  _atom_site_fract_y
  _atom_site_fract_z
  _atom_site_occupancy
  Cd  Cd1       1.0  0.50000  0.50000  0.50000  1.0000
  Cl  Cl1       1.0  0.15772  0.28380  0.39174  1.0000
  Cl  Cl2       1.0  0.84228  0.71620  0.60826  1.0000
  S   S1        1.0  0.29303  0.72333  0.34696  1.0000
  S   S2        1.0  0.70697  0.27667  0.65304  1.0000
  O   O1        1.0  0.19990  0.72710  0.46840  1.0000
  O   O2        1.0  0.80010  0.27290  0.53160  1.0000
  C   C1        1.0  0.42940  0.95540  0.41430  1.0000
  C   C2        1.0  0.57060  0.04460  0.58570  1.0000
  H   H1        1.0  0.49311  0.96271  0.33514  1.0000
  H   H2        1.0  0.50689  0.03729  0.66486  1.0000
  H   H3        1.0  0.34905  0.02224  0.41641  1.0000
  H   H4        1.0  0.65095  0.97776  0.58359  1.0000
  Cd  Cd2       1.0  0.00000  0.50000  0.50000  1.0000
  S   S3        1.0  0.61818  0.29392  0.15233  1.0000
  S   S4        1.0  0.38182  0.70608  0.84767  1.0000
  O   O3        1.0  0.16890  0.65200  0.18140  1.0000
  O   O4        1.0  0.83110  0.34800  0.81860  1.0000
  C   C3        1.0  0.60010  0.06750  0.04270  1.0000
  C   C4        1.0  0.39990  0.93250  0.95730  1.0000
  H   H5        1.0  0.66112  0.05870  0.95906  1.0000
  H   H6        1.0  0.33888  0.94130  0.04094  1.0000
  H   H7        1.0  0.66365  0.03592  0.12041  1.0000
  H   H8        1.0  0.33635  0.96408  0.87959  1.0000
  O   O5        1.0  0.42250  0.63590  0.34890  1.0000
  O   O6        1.0  0.57750  0.36410  0.65110  1.0000
  O   O7        1.0  0.51920  0.28840  0.26780  1.0000
  O   O8        1.0  0.48080  0.71160  0.73220  1.0000
  O   O9        1.0  0.53590  0.33880  0.03250  1.0000
  O   O10       1.0  0.46410  0.66120  0.96750  1.0000
  O   O11       1.0  0.81560  0.40620  0.23530  1.0000
  O   O12       1.0  0.18440  0.59380  0.76470  1.0000
