data_image0
_chemical_formula_structural       Cd3O16C6H2C2H2C4H2C2H2C6H2C4H2C2H2C6H2C2H2C4H2C2H2C8H2C2H2C4H2C2H2C6H2C4H2C2H2C6H2C2H2C4H2C2H2C2
_chemical_formula_sum              "Cd3 O16 C84 H44"
_cell_length_a       13.4594
_cell_length_b       17.2712
_cell_length_c       17.7349
_cell_angle_alpha    61.602
_cell_angle_beta     70.24
_cell_angle_gamma    79.748

_space_group_name_H-M_alt    "P 1"
_space_group_IT_number       1

loop_
  _space_group_symop_operation_xyz
  'x, y, z'

loop_
  _atom_site_type_symbol
  _atom_site_label
  _atom_site_symmetry_multiplicity
  _atom_site_fract_x
  _atom_site_fract_y
  _atom_site_fract_z
  _atom_site_occupancy
  Cd  Cd1       1.0  0.94384  0.85991  0.24253  1.0000
  Cd  Cd2       1.0  0.05616  0.14009  0.75747  1.0000
  Cd  Cd3       1.0  0.00000  0.00000  0.00000  1.0000
  O   O1        1.0  0.85630  0.99538  0.25065  1.0000
  O   O2        1.0  0.14370  0.00462  0.74935  1.0000
  O   O3        1.0  0.98869  0.99921  0.13479  1.0000
  O   O4        1.0  0.01131  0.00079  0.86521  1.0000
  O   O5        1.0  0.97510  0.16288  0.64721  1.0000
  O   O6        1.0  0.02490  0.83712  0.35279  1.0000
  O   O7        1.0  0.12170  0.22901  0.60871  1.0000
  O   O8        1.0  0.87830  0.77099  0.39129  1.0000
  O   O9        1.0  0.92200  0.20325  0.82206  1.0000
  O   O10       1.0  0.07800  0.79675  0.17794  1.0000
  O   O11       1.0  0.89750  0.11767  0.96830  1.0000
  O   O12       1.0  0.10250  0.88233  0.03170  1.0000
  O   O13       1.0  0.17040  0.18878  0.78600  1.0000
  O   O14       1.0  0.82960  0.81122  0.21400  1.0000
  O   O15       1.0  0.14950  0.08578  0.92840  1.0000
  O   O16       1.0  0.85050  0.91422  0.07160  1.0000
  C   C1        1.0  0.92410  0.03708  0.17950  1.0000
  C   C2        1.0  0.07590  0.96292  0.82050  1.0000
  C   C3        1.0  0.93610  0.13368  0.14489  1.0000
  C   C4        1.0  0.06390  0.86632  0.85511  1.0000
  C   C5        1.0  0.86120  0.18190  0.18110  1.0000
  C   C6        1.0  0.13880  0.81810  0.81890  1.0000
  H   H1        1.0  0.80058  0.15379  0.22896  1.0000
  H   H2        1.0  0.19942  0.84621  0.77104  1.0000
  C   C7        1.0  0.87390  0.27171  0.14800  1.0000
  C   C8        1.0  0.12610  0.72829  0.85200  1.0000
  H   H3        1.0  0.82100  0.30509  0.17197  1.0000
  H   H4        1.0  0.17900  0.69491  0.82803  1.0000
  C   C9        1.0  0.96360  0.31224  0.08014  1.0000
  C   C10       1.0  0.03640  0.68776  0.91986  1.0000
  C   C11       1.0  0.03890  0.26227  0.04610  1.0000
  C   C12       1.0  0.96110  0.73773  0.95390  1.0000
  H   H5        1.0  0.10145  0.28923  0.00036  1.0000
  H   H6        1.0  0.89855  0.71077  0.99964  1.0000
  C   C13       1.0  0.02470  0.17379  0.07760  1.0000
  C   C14       1.0  0.97530  0.82621  0.92240  1.0000
  H   H7        1.0  0.07658  0.14068  0.05245  1.0000
  H   H8        1.0  0.92342  0.85932  0.94755  1.0000
  C   C15       1.0  0.97940  0.40837  0.04066  1.0000
  C   C16       1.0  0.02060  0.59163  0.95934  1.0000
  C   C17       1.0  0.99820  0.44475  0.09040  1.0000
  C   C18       1.0  0.00180  0.55525  0.90960  1.0000
  C   C19       1.0  0.00030  0.39167  0.18030  1.0000
  C   C20       1.0  0.99970  0.60833  0.81970  1.0000
  H   H9        1.0  0.98516  0.33086  0.20829  1.0000
  H   H10       1.0  0.01484  0.66914  0.79171  1.0000
  C   C21       1.0  0.02350  0.42610  0.22780  1.0000
  C   C22       1.0  0.97650  0.57390  0.77220  1.0000
  C   C23       1.0  0.04450  0.51790  0.18570  1.0000
  C   C24       1.0  0.95550  0.48210  0.81430  1.0000
  H   H11       1.0  0.06011  0.54211  0.21842  1.0000
  H   H12       1.0  0.93989  0.45789  0.78158  1.0000
  C   C25       1.0  0.04260  0.57091  0.10070  1.0000
  C   C26       1.0  0.95740  0.42909  0.89930  1.0000
  H   H13       1.0  0.05715  0.63162  0.07477  1.0000
  H   H14       1.0  0.94285  0.36838  0.92523  1.0000
  C   C27       1.0  0.01920  0.53743  0.04914  1.0000
  C   C28       1.0  0.98080  0.46257  0.95086  1.0000
  C   C29       1.0  0.03020  0.36970  0.32010  1.0000
  C   C30       1.0  0.96980  0.63030  0.67990  1.0000
  C   C31       1.0  0.96110  0.30240  0.38110  1.0000
  C   C32       1.0  0.03890  0.69760  0.61890  1.0000
  H   H15       1.0  0.90846  0.29110  0.36313  1.0000
  H   H16       1.0  0.09154  0.70890  0.63687  1.0000
  C   C33       1.0  0.96640  0.25080  0.46770  1.0000
  C   C34       1.0  0.03360  0.74920  0.53230  1.0000
  H   H17       1.0  0.91759  0.20489  0.50869  1.0000
  H   H18       1.0  0.08241  0.79511  0.49131  1.0000
  C   C35       1.0  0.04310  0.26630  0.49460  1.0000
  C   C36       1.0  0.95690  0.73370  0.50540  1.0000
  C   C37       1.0  0.11420  0.33240  0.43410  1.0000
  C   C38       1.0  0.88580  0.66760  0.56590  1.0000
  H   H19       1.0  0.16833  0.34250  0.45133  1.0000
  H   H20       1.0  0.83167  0.65750  0.54867  1.0000
  C   C39       1.0  0.10620  0.38380  0.34810  1.0000
  C   C40       1.0  0.89380  0.61620  0.65190  1.0000
  H   H21       1.0  0.15442  0.43016  0.30718  1.0000
  H   H22       1.0  0.84558  0.56984  0.69282  1.0000
  C   C41       1.0  0.04710  0.21550  0.58960  1.0000
  C   C42       1.0  0.95290  0.78450  0.41040  1.0000
  C   C43       1.0  0.88080  0.18480  0.90280  1.0000
  C   C44       1.0  0.11920  0.81520  0.09720  1.0000
  C   C45       1.0  0.80010  0.25000  0.92340  1.0000
  C   C46       1.0  0.19990  0.75000  0.07660  1.0000
  C   C47       1.0  0.77490  0.32620  0.85530  1.0000
  C   C48       1.0  0.22510  0.67380  0.14470  1.0000
  H   H23       1.0  0.80863  0.33758  0.79460  1.0000
  H   H24       1.0  0.19137  0.66242  0.20540  1.0000
  C   C49       1.0  0.70080  0.38620  0.87470  1.0000
  C   C50       1.0  0.29920  0.61380  0.12530  1.0000
  H   H25       1.0  0.68352  0.43790  0.82736  1.0000
  H   H26       1.0  0.31648  0.56210  0.17264  1.0000
  C   C51       1.0  0.65260  0.37140  0.96160  1.0000
  C   C52       1.0  0.34740  0.62860  0.03840  1.0000
  C   C53       1.0  0.67800  0.29530  0.02990  1.0000
  C   C54       1.0  0.32200  0.70470  0.97010  1.0000
  H   H27       1.0  0.64500  0.28411  0.09056  1.0000
  H   H28       1.0  0.35500  0.71589  0.90944  1.0000
  C   C55       1.0  0.75140  0.23540  0.01010  1.0000
  C   C56       1.0  0.24860  0.76460  0.98990  1.0000
  H   H29       1.0  0.76810  0.18337  0.05748  1.0000
  H   H30       1.0  0.23190  0.81663  0.94252  1.0000
  C   C57       1.0  0.57390  0.43650  0.98290  1.0000
  C   C58       1.0  0.42610  0.56350  0.01710  1.0000
  C   C59       1.0  0.47320  0.44550  0.97080  1.0000
  C   C60       1.0  0.52680  0.55450  0.02920  1.0000
  C   C61       1.0  0.44220  0.38960  0.94420  1.0000
  C   C62       1.0  0.55780  0.61040  0.05580  1.0000
  H   H31       1.0  0.49041  0.34576  0.93421  1.0000
  H   H32       1.0  0.50959  0.65424  0.06579  1.0000
  C   C63       1.0  0.34520  0.39770  0.93290  1.0000
  C   C64       1.0  0.65480  0.60230  0.06710  1.0000
  C   C65       1.0  0.27250  0.46400  0.94740  1.0000
  C   C66       1.0  0.72750  0.53600  0.05260  1.0000
  H   H33       1.0  0.20560  0.47148  0.93745  1.0000
  H   H34       1.0  0.79440  0.52852  0.06255  1.0000
  C   C67       1.0  0.29840  0.51610  0.97530  1.0000
  C   C68       1.0  0.70160  0.48390  0.02470  1.0000
  H   H35       1.0  0.24795  0.55809  0.98698  1.0000
  H   H36       1.0  0.75205  0.44191  0.01302  1.0000
  C   C69       1.0  0.39980  0.50990  0.98760  1.0000
  C   C70       1.0  0.60020  0.49010  0.01240  1.0000
  C   C71       1.0  0.31110  0.33680  0.90920  1.0000
  C   C72       1.0  0.68890  0.66320  0.09080  1.0000
  C   C73       1.0  0.25550  0.36880  0.84670  1.0000
  C   C74       1.0  0.74450  0.63120  0.15330  1.0000
  H   H37       1.0  0.24194  0.43027  0.81659  1.0000
  H   H38       1.0  0.75806  0.56973  0.18341  1.0000
  C   C75       1.0  0.21950  0.31110  0.82820  1.0000
  C   C76       1.0  0.78050  0.68890  0.17180  1.0000
  H   H39       1.0  0.18566  0.33379  0.78249  1.0000
  H   H40       1.0  0.81434  0.66621  0.21751  1.0000
  C   C77       1.0  0.23220  0.22140  0.87530  1.0000
  C   C78       1.0  0.76780  0.77860  0.12470  1.0000
  C   C79       1.0  0.28810  0.18910  0.93760  1.0000
  C   C80       1.0  0.71190  0.81090  0.06240  1.0000
  H   H41       1.0  0.29848  0.12745  0.96975  1.0000
  H   H42       1.0  0.70152  0.87255  0.03025  1.0000
  C   C81       1.0  0.32860  0.24660  0.95310  1.0000
  C   C82       1.0  0.67140  0.75340  0.04690  1.0000
  H   H43       1.0  0.36887  0.22407  0.99432  1.0000
  H   H44       1.0  0.63113  0.77593  0.00568  1.0000
  C   C83       1.0  0.17850  0.16000  0.86340  1.0000
  C   C84       1.0  0.82150  0.84000  0.13660  1.0000
